version 3
run General-0-20250610-17:05:58-23097
attr configname General
attr datetime 20250610-17:05:58
attr datetimef 20250610-170558
attr experiment General
attr inifile omnetpp.ini
attr iterationvars "$0=\"avg\""
attr iterationvarsd avg
attr iterationvarsf avg-
attr measurement "$0=\"avg\""
attr network SmartGridNetwork
attr processid 23097
attr repetition 0
attr replication #0
attr resultdir results
attr runnumber 0
attr seedset 0
config image-path ../../inet4.4/images
config network SmartGridNetwork
config output-vector-file ../results/n100-gw1-s0.ini.vec
config **.maxTransmissionDuration 4s
config **.energyDetection -110dBm
config **.vector-recording true
config record-eventlog true
config output-scalar-file results/MyNetwork.sca
config rng-class cMersenneTwister
config **.monitoring_system.numUdpApps 1
config **.monitoring_system.packetForwarder.localPort 2000
config **.monitoring_system.packetForwarder.destPort 1000
config **.monitoring_system.packetForwarder.destAddresses "\"networkServer\""
config **.monitoring_system.packetForwarder.indexNumber 0
config **.networkServer.numApps 1
config **.networkServer.**.evaluateADRinServer true
config **.networkServer.app[0].typename NetworkServerApp
config **.networkServer.app[0].destAddresses "\"loRaGW[0]\""
config **.networkServer.app[0].destPort 2000
config **.networkServer.app[0].localPort 1000
config **.networkServer.app[0].adrMethod "\"avg\""
config **.NetworkServerApp.maxQueueSize 10
config **.SimpleLoRaApp.maxQueueSize 10
config **.numberOfPacketsToSend 0
config sim-time-limit 1d
config simtime-resolution -11
config repeat 5
config **.timeToFirstPacket exponential(1000s)
config **.timeToNextPacket exponential(1000s)
config **.alohaChannelModel false
config **.house1.**.initFromDisplayString false
config **.house1.**.evaluateADRinNode true
config **.house1.**initialLoRaBW "125 kHz"
config **.house1.**initialLoRaCR 4
config **.house1.numApps 1
config **.house1.app[0].typename SimpleLoRaApp
config **.house2.**.initFromDisplayString false
config **.house2.**.evaluateADRinNode true
config **.house2.**initialLoRaBW "125 kHz"
config **.house2.**initialLoRaCR 4
config **.house2.numApps 1
config **.house2.app[0].typename SimpleLoRaApp
config **.house3.**.initFromDisplayString false
config **.house3.**.evaluateADRinNode true
config **.house3.**initialLoRaBW "125 kHz"
config **.house3.**initialLoRaCR 4
config **.house3.numApps 1
config **.house3.app[0].typename SimpleLoRaApp
config **.LoRaGWNic.radio.iAmGateway true
config **.monitoring_system.**.initFromDisplayString false
config **.house1.LoRaNic.radio.energyConsumer.typename LoRaEnergyConsumer
config **.house1.**.energySourceModule "\"^.IdealEpEnergyStorage\""
config **.house1.LoRaNic.radio.energyConsumer.configFile "xmldoc(\"/home/duru/omnetpp-6.0/samples/flora/simulations/energyConsumptionParameters.xml\")"
config **.house2.LoRaNic.radio.energyConsumer.typename LoRaEnergyConsumer
config **.house2.**.energySourceModule "\"^.IdealEpEnergyStorage\""
config **.house2.LoRaNic.radio.energyConsumer.configFile "xmldoc(\"/home/duru/omnetpp-6.0/samples/flora/simulations/energyConsumptionParameters.xml\")"
config **.house3.LoRaNic.radio.energyConsumer.typename LoRaEnergyConsumer
config **.house3.**.energySourceModule "\"^.IdealEpEnergyStorage\""
config **.house3.LoRaNic.radio.energyConsumer.configFile "xmldoc(\"/home/duru/omnetpp-6.0/samples/flora/simulations/energyConsumptionParameters.xml\")"
config **.sigma 3.57
config **.constraintAreaMinX 0m
config **.constraintAreaMinY 0m
config **.constraintAreaMinZ 0m
config **.constraintAreaMaxZ 0m
config SmartGridNetwork.**.radio.separateTransmissionParts false
config SmartGridNetwork.**.radio.separateReceptionParts false
config **.ipv4Delayer.config "xmldoc(\"/home/duru/omnetpp-6.0/samples/flora/simulations/cloudDelays.xml\")"
config **.radio.radioMediumModule "\"LoRaMedium\""
config **.LoRaMedium.pathLossType "\"LoRaLogNormalShadowing\""
config **.minInterferenceTime 0s
config **.displayAddresses false
config **.constraintAreaMaxX 2376.0m
config **.constraintAreaMaxY 1090.0m
config **.monitoring_system.**.initialX 550.00m
config **.monitoring_system.**.initialY 400.00m
config output-scalar-file ../results/n100-gw1-s0.ini.sca
config **.house1.**.initialX 500.00m
config **.house1.**.initialY 450.00m
config **.house2.**.initialX 550.00m
config **.house2.**.initialY 450.00m
config **.house3.**.initialX 600.00m
config **.house3.**.initialY 450.00m
config **.house1.**initialLoRaSF 8
config **.house1.**initialLoRaTP 8dBm
config **.house2.**initialLoRaSF 9
config **.house2.**initialLoRaTP 8dBm
config **.house3.**initialLoRaSF 7
config **.house3.**initialLoRaTP 8dBm

par SmartGridNetwork.networkServer.ethg$o[0].channel typename "\"inet.node.ethernet.Eth1G\""
par SmartGridNetwork.networkServer.ethg$o[0].channel disabled false
attr mutable ""
par SmartGridNetwork.networkServer.ethg$o[0].channel delay 5e-08s
attr mutable ""
attr unit s
par SmartGridNetwork.networkServer.ethg$o[0].channel datarate 1e+09bps
attr mutable ""
attr unit bps
par SmartGridNetwork.networkServer.ethg$o[0].channel ber 0
attr mutable ""
par SmartGridNetwork.networkServer.ethg$o[0].channel per 0
attr mutable ""
par SmartGridNetwork.networkServer.ethg$o[0].channel length 10m
attr unit m
par SmartGridNetwork.ts_Router.ethg$o[0].channel typename "\"inet.node.ethernet.Eth1G\""
par SmartGridNetwork.ts_Router.ethg$o[0].channel disabled false
attr mutable ""
par SmartGridNetwork.ts_Router.ethg$o[0].channel delay 5e-08s
attr mutable ""
attr unit s
par SmartGridNetwork.ts_Router.ethg$o[0].channel datarate 1e+09bps
attr mutable ""
attr unit bps
par SmartGridNetwork.ts_Router.ethg$o[0].channel ber 0
attr mutable ""
par SmartGridNetwork.ts_Router.ethg$o[0].channel per 0
attr mutable ""
par SmartGridNetwork.ts_Router.ethg$o[0].channel length 10m
attr unit m
par SmartGridNetwork.ts_Router.pppg$o[0].channel typename "\"inet.node.ethernet.Eth1G\""
par SmartGridNetwork.ts_Router.pppg$o[0].channel disabled false
attr mutable ""
par SmartGridNetwork.ts_Router.pppg$o[0].channel delay 5e-08s
attr mutable ""
attr unit s
par SmartGridNetwork.ts_Router.pppg$o[0].channel datarate 1e+09bps
attr mutable ""
attr unit bps
par SmartGridNetwork.ts_Router.pppg$o[0].channel ber 0
attr mutable ""
par SmartGridNetwork.ts_Router.pppg$o[0].channel per 0
attr mutable ""
par SmartGridNetwork.ts_Router.pppg$o[0].channel length 10m
attr unit m
par SmartGridNetwork.internetCloud.pppg$o[0].channel typename "\"inet.node.ethernet.Eth1G\""
par SmartGridNetwork.internetCloud.pppg$o[0].channel disabled false
attr mutable ""
par SmartGridNetwork.internetCloud.pppg$o[0].channel delay 5e-08s
attr mutable ""
attr unit s
par SmartGridNetwork.internetCloud.pppg$o[0].channel datarate 1e+09bps
attr mutable ""
attr unit bps
par SmartGridNetwork.internetCloud.pppg$o[0].channel ber 0
attr mutable ""
par SmartGridNetwork.internetCloud.pppg$o[0].channel per 0
attr mutable ""
par SmartGridNetwork.internetCloud.pppg$o[0].channel length 10m
attr unit m
par SmartGridNetwork.internetCloud.pppg$o[1].channel typename "\"inet.node.ethernet.Eth1G\""
par SmartGridNetwork.internetCloud.pppg$o[1].channel disabled false
attr mutable ""
par SmartGridNetwork.internetCloud.pppg$o[1].channel delay 5e-08s
attr mutable ""
attr unit s
par SmartGridNetwork.internetCloud.pppg$o[1].channel datarate 1e+09bps
attr mutable ""
attr unit bps
par SmartGridNetwork.internetCloud.pppg$o[1].channel ber 0
attr mutable ""
par SmartGridNetwork.internetCloud.pppg$o[1].channel per 0
attr mutable ""
par SmartGridNetwork.internetCloud.pppg$o[1].channel length 10m
attr unit m
par SmartGridNetwork.gwRouter.pppg$o[0].channel typename "\"inet.node.ethernet.Eth1G\""
par SmartGridNetwork.gwRouter.pppg$o[0].channel disabled false
attr mutable ""
par SmartGridNetwork.gwRouter.pppg$o[0].channel delay 5e-08s
attr mutable ""
attr unit s
par SmartGridNetwork.gwRouter.pppg$o[0].channel datarate 1e+09bps
attr mutable ""
attr unit bps
par SmartGridNetwork.gwRouter.pppg$o[0].channel ber 0
attr mutable ""
par SmartGridNetwork.gwRouter.pppg$o[0].channel per 0
attr mutable ""
par SmartGridNetwork.gwRouter.pppg$o[0].channel length 10m
attr unit m
par SmartGridNetwork.gwRouter.ethg$o[0].channel typename "\"inet.node.ethernet.Eth1G\""
par SmartGridNetwork.gwRouter.ethg$o[0].channel disabled false
attr mutable ""
par SmartGridNetwork.gwRouter.ethg$o[0].channel delay 5e-08s
attr mutable ""
attr unit s
par SmartGridNetwork.gwRouter.ethg$o[0].channel datarate 1e+09bps
attr mutable ""
attr unit bps
par SmartGridNetwork.gwRouter.ethg$o[0].channel ber 0
attr mutable ""
par SmartGridNetwork.gwRouter.ethg$o[0].channel per 0
attr mutable ""
par SmartGridNetwork.gwRouter.ethg$o[0].channel length 10m
attr unit m
par SmartGridNetwork.monitoring_system.ethg$o[0].channel typename "\"inet.node.ethernet.Eth1G\""
par SmartGridNetwork.monitoring_system.ethg$o[0].channel disabled false
attr mutable ""
par SmartGridNetwork.monitoring_system.ethg$o[0].channel delay 5e-08s
attr mutable ""
attr unit s
par SmartGridNetwork.monitoring_system.ethg$o[0].channel datarate 1e+09bps
attr mutable ""
attr unit bps
par SmartGridNetwork.monitoring_system.ethg$o[0].channel ber 0
attr mutable ""
par SmartGridNetwork.monitoring_system.ethg$o[0].channel per 0
attr mutable ""
par SmartGridNetwork.monitoring_system.ethg$o[0].channel length 10m
attr unit m
par SmartGridNetwork.house1.interfaceTable typename "\"inet.networklayer.common.InterfaceTable\""
par SmartGridNetwork.house1.interfaceTable displayAddresses false
par SmartGridNetwork.house1.mobility typename "\"inet.mobility.static.StationaryMobility\""
par SmartGridNetwork.house1.mobility subjectModule "\"^\""
par SmartGridNetwork.house1.mobility coordinateSystemModule "\"\""
par SmartGridNetwork.house1.mobility displayStringTextFormat "\"p: %p\\nv: %v\""
attr mutable ""
par SmartGridNetwork.house1.mobility updateDisplayString true
par SmartGridNetwork.house1.mobility constraintAreaMinX 0m
attr unit m
par SmartGridNetwork.house1.mobility constraintAreaMinY 0m
attr unit m
par SmartGridNetwork.house1.mobility constraintAreaMinZ 0m
attr unit m
par SmartGridNetwork.house1.mobility constraintAreaMaxX 2376m
attr unit m
par SmartGridNetwork.house1.mobility constraintAreaMaxY 1090m
attr unit m
par SmartGridNetwork.house1.mobility constraintAreaMaxZ 0m
attr unit m
par SmartGridNetwork.house1.mobility initialX 500m
attr unit m
par SmartGridNetwork.house1.mobility initialY 450m
attr unit m
par SmartGridNetwork.house1.mobility initialZ 0m
attr unit m
par SmartGridNetwork.house1.mobility initialLatitude "nan deg"
attr unit deg
par SmartGridNetwork.house1.mobility initialLongitude "nan deg"
attr unit deg
par SmartGridNetwork.house1.mobility initialAltitude 0m
attr unit m
par SmartGridNetwork.house1.mobility initialHeading 0deg
attr unit deg
par SmartGridNetwork.house1.mobility initialElevation 0deg
attr unit deg
par SmartGridNetwork.house1.mobility initialBank 0deg
attr unit deg
par SmartGridNetwork.house1.mobility initFromDisplayString false
par SmartGridNetwork.house1.mobility updateFromDisplayString true
par SmartGridNetwork.house1.LoRaNic.radioIn.channel typename "\"ned.IdealChannel\""
par SmartGridNetwork.house1.LoRaNic.mac.upperLayerOut.channel typename "\"ned.IdealChannel\""
par SmartGridNetwork.house1.LoRaNic.upperLayerIn.channel typename "\"ned.IdealChannel\""
par SmartGridNetwork.house1.LoRaNic.queue typename "\"inet.queueing.queue.DropTailQueue\""
par SmartGridNetwork.house1.LoRaNic.queue displayStringTextFormat "\"contains %p pk (%l) pushed %u\\npulled %o removed %r dropped %d\""
par SmartGridNetwork.house1.LoRaNic.queue packetCapacity -1
par SmartGridNetwork.house1.LoRaNic.queue dataCapacity -1b
attr unit b
par SmartGridNetwork.house1.LoRaNic.queue dropperClass "\"inet::queueing::PacketAtCollectionEndDropper\""
par SmartGridNetwork.house1.LoRaNic.queue comparatorClass "\"\""
par SmartGridNetwork.house1.LoRaNic.queue bufferModule "\"\""
scalar SmartGridNetwork.house1.LoRaNic.queue queueLength:last 0
attr autoWarmupFilter false
attr interpolationmode sample-hold
attr recordingmode last
attr source "warmup(atomic(constant0(packetPushEnded) + count(packetPushStarted) - count(packetPulled) - count(packetRemoved) - count(packetDropped)))"
attr title "queue length, last"
attr unit pk
scalar SmartGridNetwork.house1.LoRaNic.queue queueLength:max 0
attr autoWarmupFilter false
attr interpolationmode sample-hold
attr recordingmode max
attr source "warmup(atomic(constant0(packetPushEnded) + count(packetPushStarted) - count(packetPulled) - count(packetRemoved) - count(packetDropped)))"
attr title "queue length, max"
attr unit pk
scalar SmartGridNetwork.house1.LoRaNic.queue queueLength:timeavg 0
attr autoWarmupFilter false
attr interpolationmode sample-hold
attr recordingmode timeavg
attr source "warmup(atomic(constant0(packetPushEnded) + count(packetPushStarted) - count(packetPulled) - count(packetRemoved) - count(packetDropped)))"
attr title "queue length, timeavg"
attr unit pk
scalar SmartGridNetwork.house1.LoRaNic.queue queueBitLength:last 0
attr autoWarmupFilter false
attr interpolationmode sample-hold
attr recordingmode last
attr source "warmup(atomic(constant0(packetPushEnded) + sum(packetLength(packetPushStarted)) - sum(packetLength(packetPulled)) - sum(packetLength(packetRemoved)) - sum(packetLength(packetDropped))))"
attr title "queue bit length, last"
attr unit b
scalar SmartGridNetwork.house1.LoRaNic.queue queueBitLength:max 0
attr autoWarmupFilter false
attr interpolationmode sample-hold
attr recordingmode max
attr source "warmup(atomic(constant0(packetPushEnded) + sum(packetLength(packetPushStarted)) - sum(packetLength(packetPulled)) - sum(packetLength(packetRemoved)) - sum(packetLength(packetDropped))))"
attr title "queue bit length, max"
attr unit b
scalar SmartGridNetwork.house1.LoRaNic.queue queueBitLength:timeavg 0
attr autoWarmupFilter false
attr interpolationmode sample-hold
attr recordingmode timeavg
attr source "warmup(atomic(constant0(packetPushEnded) + sum(packetLength(packetPushStarted)) - sum(packetLength(packetPulled)) - sum(packetLength(packetRemoved)) - sum(packetLength(packetDropped))))"
attr title "queue bit length, timeavg"
attr unit b
statistic SmartGridNetwork.house1.LoRaNic.queue queueingTime:histogram
field count 21
field mean 0
field stddev 0
field min 0
field max 0
field sum 0
field sqrsum 0
attr interpolationmode none
attr recordingmode histogram
attr source queueingTime(packetPulled)
attr title "queueing times"
attr unit s
bin	-inf	0
bin	-0.5	0
bin	-0.48	0
bin	-0.46	0
bin	-0.44	0
bin	-0.42	0
bin	-0.4	0
bin	-0.38	0
bin	-0.36	0
bin	-0.34	0
bin	-0.32	0
bin	-0.3	0
bin	-0.28	0
bin	-0.26	0
bin	-0.24	0
bin	-0.22	0
bin	-0.2	0
bin	-0.18	0
bin	-0.16	0
bin	-0.14	0
bin	-0.12	0
bin	-0.1	0
bin	-0.08	0
bin	-0.06	0
bin	-0.04	0
bin	-0.02	0
bin	0	21
bin	0.02	0
bin	0.04	0
bin	0.06	0
bin	0.08	0
bin	0.1	0
bin	0.12	0
bin	0.14	0
bin	0.16	0
bin	0.18	0
bin	0.2	0
bin	0.22	0
bin	0.24	0
bin	0.26	0
bin	0.28	0
bin	0.3	0
bin	0.32	0
bin	0.34	0
bin	0.36	0
bin	0.38	0
bin	0.4	0
bin	0.42	0
bin	0.44	0
bin	0.46	0
bin	0.48	0
bin	0.5	0
scalar SmartGridNetwork.house1.LoRaNic.queue outgoingPackets:count 21
attr recordingmode count
attr source packetPulled
attr title "outgoing packets, count"
attr unit pk
scalar SmartGridNetwork.house1.LoRaNic.queue outgoingPacketLengths:sum 1680
attr interpolationmode none
attr recordingmode sum
attr source packetLength(packetPulled)
attr title "outgoing packet lengths, sum"
attr unit b
statistic SmartGridNetwork.house1.LoRaNic.queue outgoingPacketLengths:histogram
field count 21
field mean 80
field stddev 0
field min 80
field max 80
field sum 1680
field sqrsum 134400
attr interpolationmode none
attr recordingmode histogram
attr source packetLength(packetPulled)
attr title "outgoing packet lengths"
attr unit b
bin	-inf	0
bin	79	0
bin	80	21
bin	81	0
statistic SmartGridNetwork.house1.LoRaNic.queue flowQueueingTime:histogram
field count 0
field mean -nan
field stddev nan
field min nan
field max nan
field sum 0
field sqrsum 0
attr interpolationmode none
attr recordingmode histogram
attr source queueingTime(demuxFlow(packetPulled))
attr title "flow queueing times"
attr unit s
bin	-inf	0
bin	0	0
bin	1	0
scalar SmartGridNetwork.house1.LoRaNic.queue incomingPackets:count 21
attr recordingmode count
attr source packetPushStarted
attr title "incoming packets, count"
attr unit pk
scalar SmartGridNetwork.house1.LoRaNic.queue incomingPacketLengths:sum 1680
attr interpolationmode none
attr recordingmode sum
attr source packetLength(packetPushStarted)
attr title "incoming packet lengths, sum"
attr unit b
statistic SmartGridNetwork.house1.LoRaNic.queue incomingPacketLengths:histogram
field count 21
field mean 80
field stddev 0
field min 80
field max 80
field sum 1680
field sqrsum 134400
attr interpolationmode none
attr recordingmode histogram
attr source packetLength(packetPushStarted)
attr title "incoming packet lengths"
attr unit b
bin	-inf	0
bin	79	0
bin	80	21
bin	81	0
scalar SmartGridNetwork.house1.LoRaNic.queue droppedPacketsQueueOverflow:count 0
attr interpolationmode none
attr recordingmode count
attr source packetDropReasonIsQueueOverflow(packetDropped)
attr title "dropped packets: queue overflow, count"
attr unit pk
scalar SmartGridNetwork.house1.LoRaNic.queue droppedPacketLengthsQueueOverflow:sum 0
attr interpolationmode none
attr recordingmode sum
attr source packetLength(packetDropReasonIsQueueOverflow(packetDropped))
attr title "dropped packet lengths: queue overflow, sum"
attr unit b
par SmartGridNetwork.house1.LoRaNic.mac typename "\"flora.LoRa.LoRaMac\""
par SmartGridNetwork.house1.LoRaNic.mac interfaceTableModule "\"SmartGridNetwork.house1.interfaceTable\""
par SmartGridNetwork.house1.LoRaNic.mac radioModule "\"^.radio\""
par SmartGridNetwork.house1.LoRaNic.mac address "\"0A-AA-00-00-00-01\""
attr mutable ""
par SmartGridNetwork.house1.LoRaNic.mac fcsMode "\"declared\""
attr enum declared,computed
par SmartGridNetwork.house1.LoRaNic.mac useAck true
par SmartGridNetwork.house1.LoRaNic.mac bitrate 250bps
attr unit bps
par SmartGridNetwork.house1.LoRaNic.mac headerLength 17B
attr unit B
par SmartGridNetwork.house1.LoRaNic.mac ackLength 14B
attr unit B
par SmartGridNetwork.house1.LoRaNic.mac sifsTime 1e-05s
attr unit s
par SmartGridNetwork.house1.LoRaNic.mac slotTime 2e-05s
attr unit s
par SmartGridNetwork.house1.LoRaNic.mac difsTime 5e-05s
attr unit s
par SmartGridNetwork.house1.LoRaNic.mac ackTimeout 0.44803s
attr unit s
par SmartGridNetwork.house1.LoRaNic.mac mtu 1500
par SmartGridNetwork.house1.LoRaNic.mac cwMin 31
par SmartGridNetwork.house1.LoRaNic.mac cwMax 1023
par SmartGridNetwork.house1.LoRaNic.mac cwMulticast 31
par SmartGridNetwork.house1.LoRaNic.mac retryLimit 7
scalar SmartGridNetwork.house1.LoRaNic.mac numRetry 0
scalar SmartGridNetwork.house1.LoRaNic.mac numSentWithoutRetry 0
scalar SmartGridNetwork.house1.LoRaNic.mac numGivenUp 0
scalar SmartGridNetwork.house1.LoRaNic.mac numSent 21
scalar SmartGridNetwork.house1.LoRaNic.mac numReceived 0
scalar SmartGridNetwork.house1.LoRaNic.mac numSentBroadcast 0
scalar SmartGridNetwork.house1.LoRaNic.mac numReceivedBroadcast 0
scalar SmartGridNetwork.house1.LoRaNic.mac packetDropIncorrectlyReceived:count 0
attr interpolationmode none
attr recordingmode count
attr source packetDropReasonIsIncorrectlyReceived(packetDropped)
attr title "packet drop: incorrectly received, count"
scalar SmartGridNetwork.house1.LoRaNic.mac packetDropIncorrectlyReceived:sum(packetBytes) 0
attr interpolationmode none
attr recordingmode sum(packetBytes)
attr source packetDropReasonIsIncorrectlyReceived(packetDropped)
attr title "packet drop: incorrectly received, sum(packetBytes)"
scalar SmartGridNetwork.house1.LoRaNic.mac packetDropNotAddressedToUs:count 0
attr interpolationmode none
attr recordingmode count
attr source packetDropReasonIsNotAddressedToUs(packetDropped)
attr title "packet drop: not addressed to us, count"
scalar SmartGridNetwork.house1.LoRaNic.mac packetDropNotAddressedToUs:sum(packetBytes) 0
attr interpolationmode none
attr recordingmode sum(packetBytes)
attr source packetDropReasonIsNotAddressedToUs(packetDropped)
attr title "packet drop: not addressed to us, sum(packetBytes)"
scalar SmartGridNetwork.house1.LoRaNic.mac packetDropQueueOverflow:count 0
attr interpolationmode none
attr recordingmode count
attr source packetDropReasonIsQueueOverflow(packetDropped)
attr title "packet drop: queue overflow, count"
scalar SmartGridNetwork.house1.LoRaNic.mac packetDropQueueOverflow:sum(packetBytes) 0
attr interpolationmode none
attr recordingmode sum(packetBytes)
attr source packetDropReasonIsQueueOverflow(packetDropped)
attr title "packet drop: queue overflow, sum(packetBytes)"
scalar SmartGridNetwork.house1.LoRaNic.mac packetDropRetryLimitReached:count 0
attr interpolationmode none
attr recordingmode count
attr source packetDropReasonIsRetryLimitReached(packetDropped)
attr title "packet drop: retry limit reached, count"
scalar SmartGridNetwork.house1.LoRaNic.mac packetDropRetryLimitReached:sum(packetBytes) 0
attr interpolationmode none
attr recordingmode sum(packetBytes)
attr source packetDropReasonIsRetryLimitReached(packetDropped)
attr title "packet drop: retry limit reached, sum(packetBytes)"
scalar SmartGridNetwork.house1.LoRaNic.mac linkBroken:count 0
attr interpolationmode none
attr recordingmode count
attr source linkBroken
attr title "link break, count"
par SmartGridNetwork.house1.LoRaNic.radio.antenna typename "\"inet.physicallayer.wireless.common.antenna.IsotropicAntenna\""
par SmartGridNetwork.house1.LoRaNic.radio.antenna mobilityModule "\"^.^.^.mobility\""
par SmartGridNetwork.house1.LoRaNic.radio.antenna numAntennas 1
par SmartGridNetwork.house1.LoRaNic.radio.transmitter typename "\"flora.LoRaPhy.LoRaTransmitter\""
par SmartGridNetwork.house1.LoRaNic.radio.transmitter preambleDuration 0.001s
attr unit s
par SmartGridNetwork.house1.LoRaNic.radio.transmitter headerLength 0b
attr unit b
par SmartGridNetwork.house1.LoRaNic.radio.transmitter bitrate 250000bps
attr unit bps
par SmartGridNetwork.house1.LoRaNic.radio.transmitter power 0.025118W
attr unit W
par SmartGridNetwork.house1.LoRaNic.radio.transmitter centerFrequency 8.68e+08Hz
attr unit Hz
par SmartGridNetwork.house1.LoRaNic.radio.transmitter bandwidth 250000Hz
attr unit Hz
par SmartGridNetwork.house1.LoRaNic.radio.transmitter modulation "\"LoRaModulation\""
scalar SmartGridNetwork.house1.LoRaNic.radio.transmitter LoRaTransmissionCreated:count 21
attr recordingmode count
attr source LoRaTransmissionCreated
par SmartGridNetwork.house1.LoRaNic.radio.receiver typename "\"flora.LoRaPhy.LoRaReceiver\""
par SmartGridNetwork.house1.LoRaNic.radio.receiver snirThreshold -8dB
attr unit dB
par SmartGridNetwork.house1.LoRaNic.radio.receiver snirThresholdMode "\"min\""
attr unit min,mean
par SmartGridNetwork.house1.LoRaNic.radio.receiver energyDetection -110dBm
attr unit dBm
par SmartGridNetwork.house1.LoRaNic.radio.receiver sensitivity -137dBm
attr unit dBm
par SmartGridNetwork.house1.LoRaNic.radio.receiver centerFrequency 8.68e+08Hz
attr unit Hz
par SmartGridNetwork.house1.LoRaNic.radio.receiver bandwidth 250000Hz
attr unit Hz
par SmartGridNetwork.house1.LoRaNic.radio.receiver modulation "\"BPSK\""
par SmartGridNetwork.house1.LoRaNic.radio.receiver alohaChannelModel false
scalar SmartGridNetwork.house1.LoRaNic.radio.receiver numCollisions 0
scalar SmartGridNetwork.house1.LoRaNic.radio.receiver rcvBelowSensitivity 0
scalar SmartGridNetwork.house1.LoRaNic.radio.receiver LoRaReceptionCollision:count 0
attr recordingmode count
attr source LoRaReceptionCollision
par SmartGridNetwork.house1.LoRaNic.radio.energyConsumer typename "\"flora.LoRaEnergyModules.LoRaEnergyConsumer\""
par SmartGridNetwork.house1.LoRaNic.radio.energyConsumer energySourceModule "\"^.IdealEpEnergyStorage\""
par SmartGridNetwork.house1.LoRaNic.radio.energyConsumer offPowerConsumption 0W
attr unit W
par SmartGridNetwork.house1.LoRaNic.radio.energyConsumer sleepPowerConsumption 0.001W
attr unit W
par SmartGridNetwork.house1.LoRaNic.radio.energyConsumer switchingPowerConsumption 0.001W
attr unit W
par SmartGridNetwork.house1.LoRaNic.radio.energyConsumer receiverIdlePowerConsumption 0.002W
attr unit W
par SmartGridNetwork.house1.LoRaNic.radio.energyConsumer receiverBusyPowerConsumption 0.005W
attr unit W
par SmartGridNetwork.house1.LoRaNic.radio.energyConsumer receiverReceivingPowerConsumption 0.01W
attr unit W
par SmartGridNetwork.house1.LoRaNic.radio.energyConsumer receiverReceivingPreamblePowerConsumption 0.01W
attr unit W
par SmartGridNetwork.house1.LoRaNic.radio.energyConsumer receiverReceivingHeaderPowerConsumption 0.01W
attr unit W
par SmartGridNetwork.house1.LoRaNic.radio.energyConsumer receiverReceivingDataPowerConsumption 0.01W
attr unit W
par SmartGridNetwork.house1.LoRaNic.radio.energyConsumer transmitterIdlePowerConsumption 0.002W
attr unit W
par SmartGridNetwork.house1.LoRaNic.radio.energyConsumer transmitterTransmittingPowerConsumption 0.1W
attr unit W
par SmartGridNetwork.house1.LoRaNic.radio.energyConsumer transmitterTransmittingPreamblePowerConsumption 0.1W
attr unit W
par SmartGridNetwork.house1.LoRaNic.radio.energyConsumer transmitterTransmittingHeaderPowerConsumption 0.1W
attr unit W
par SmartGridNetwork.house1.LoRaNic.radio.energyConsumer transmitterTransmittingDataPowerConsumption 0.1W
attr unit W
par SmartGridNetwork.house1.LoRaNic.radio.energyConsumer configFile "<root>...</root> at /home/duru/omnetpp-6.0/samples/flora/simulations/energyConsumptionParameters.xml:2"
scalar SmartGridNetwork.house1.LoRaNic.radio.energyConsumer totalEnergyConsumed 1.58658192
par SmartGridNetwork.house1.LoRaNic.radio.IdealEpEnergyStorage typename "\"inet.power.storage.IdealEpEnergyStorage\""
scalar SmartGridNetwork.house1.LoRaNic.radio.IdealEpEnergyStorage residualEnergyCapacity:last -1.58658192
attr interpolationmode linear
attr recordingmode last
attr source residualEnergyCapacityChanged
attr title "Residual energy capacity, last"
par SmartGridNetwork.house1.LoRaNic.radio typename "\"flora.LoRa.LoRaRadio\""
par SmartGridNetwork.house1.LoRaNic.radio radioMediumModule "\"LoRaMedium\""
par SmartGridNetwork.house1.LoRaNic.radio energySourceModule "\"^.IdealEpEnergyStorage\""
par SmartGridNetwork.house1.LoRaNic.radio initialRadioMode "\"off\""
attr enum off,sleep,receiver,transmitter,transceiver
par SmartGridNetwork.house1.LoRaNic.radio switchingTimes "\"ms 0 0 0 0 0 0 0 0 0 0 0 0 0 0 0 0 0 0 0 0 0 0 0 0 0\""
par SmartGridNetwork.house1.LoRaNic.radio sendRawBytes false
par SmartGridNetwork.house1.LoRaNic.radio separateTransmissionParts false
par SmartGridNetwork.house1.LoRaNic.radio separateReceptionParts false
par SmartGridNetwork.house1.LoRaNic.radio displayCommunicationRange false
par SmartGridNetwork.house1.LoRaNic.radio displayInterferenceRange false
par SmartGridNetwork.house1.LoRaNic.radio centerFrequency 8.68e+08Hz
attr unit Hz
par SmartGridNetwork.house1.LoRaNic.radio bandwidth 250000Hz
attr unit Hz
par SmartGridNetwork.house1.LoRaNic.radio iAmGateway false
scalar SmartGridNetwork.house1.LoRaNic.radio radioMode:count 129
attr interpolationmode sample-hold
attr recordingmode count
attr source radioModeChanged
attr title "Radio mode, count"
scalar SmartGridNetwork.house1.LoRaNic.radio receptionState:count 84
attr interpolationmode sample-hold
attr recordingmode count
attr source receptionStateChanged
attr title "Radio reception state, count"
scalar SmartGridNetwork.house1.LoRaNic.radio transmissionState:count 84
attr interpolationmode sample-hold
attr recordingmode count
attr source transmissionStateChanged
attr title "Radio transmission state, count"
statistic SmartGridNetwork.house1.LoRaNic.radio minSnir:histogram
field count 0
field mean -nan
field stddev nan
field min nan
field max nan
field sum 0
field sqrsum 0
attr recordingmode histogram
attr source minimumSnir(packetSentToUpper)
attr title "Min SNIR"
bin	-inf	0
bin	0	0
bin	1	0
statistic SmartGridNetwork.house1.LoRaNic.radio packetErrorRate:histogram
field count 0
field mean -nan
field stddev nan
field min nan
field max nan
field sum 0
field sqrsum 0
attr recordingmode histogram
attr source packetErrorRate(packetSentToUpper)
attr title "Packet error rate"
bin	-inf	0
bin	0	0
bin	1	0
statistic SmartGridNetwork.house1.LoRaNic.radio bitErrorRate:histogram
field count 0
field mean -nan
field stddev nan
field min nan
field max nan
field sum 0
field sqrsum 0
attr recordingmode histogram
attr source bitErrorRate(packetSentToUpper)
attr title "Bit error rate"
bin	-inf	0
bin	0	0
bin	1	0
statistic SmartGridNetwork.house1.LoRaNic.radio symbolErrorRate:histogram
field count 0
field mean -nan
field stddev nan
field min nan
field max nan
field sum 0
field sqrsum 0
attr recordingmode histogram
attr source symbolErrorRate(packetSentToUpper)
attr title "Symbol error rate"
bin	-inf	0
bin	0	0
bin	1	0
par SmartGridNetwork.house1.LoRaNic typename "\"flora.LoRa.LoRaNic\""
par SmartGridNetwork.house1.LoRaNic displayStringTextFormat "\"%a (%i)\\n%m\""
par SmartGridNetwork.house1.LoRaNic recordPcap false
par SmartGridNetwork.house1.LoRaNic numPcapRecorders 0
par SmartGridNetwork.house1.LoRaNic interfaceTableModule "\"SmartGridNetwork.house1.interfaceTable\""
par SmartGridNetwork.house1.LoRaNic energySourceModule "\"^.IdealEpEnergyStorage\""
par SmartGridNetwork.house1.LoRaNic protocol "\"\""
scalar SmartGridNetwork.house1.LoRaNic packetDropInterfaceDown:count 0
attr interpolationmode none
attr recordingmode count
attr source packetDropReasonIsInterfaceDown(packetDropped)
attr title "packet drops: interface down, count"
scalar SmartGridNetwork.house1.LoRaNic packetDropInterfaceDown:sum(packetBytes) 0
attr interpolationmode none
attr recordingmode sum(packetBytes)
attr source packetDropReasonIsInterfaceDown(packetDropped)
attr title "packet drops: interface down, sum(packetBytes)"
scalar SmartGridNetwork.house1.LoRaNic packetDropNoCarrier:count 0
attr interpolationmode none
attr recordingmode count
attr source packetDropReasonIsNoCarrier(packetDropped)
attr title "packet drops: no carrier, count"
scalar SmartGridNetwork.house1.LoRaNic packetDropNoCarrier:sum(packetBytes) 0
attr interpolationmode none
attr recordingmode sum(packetBytes)
attr source packetDropReasonIsNoCarrier(packetDropped)
attr title "packet drops: no carrier, sum(packetBytes)"
par SmartGridNetwork.house1.app[0] typename "\"flora.LoRaApp.SimpleLoRaApp\""
par SmartGridNetwork.house1.app[0] numberOfPacketsToSend 0
par SmartGridNetwork.house1.app[0] timeToFirstPacket exponential(1000s)
attr unit s
par SmartGridNetwork.house1.app[0] timeToNextPacket exponential(1000s)
attr unit s
par SmartGridNetwork.house1.app[0] initialLoRaTP 8dBm
attr unit dBm
par SmartGridNetwork.house1.app[0] initialLoRaCF 8.68e+08Hz
attr unit Hz
par SmartGridNetwork.house1.app[0] initialLoRaSF 8
par SmartGridNetwork.house1.app[0] initialLoRaBW 125000Hz
attr unit Hz
par SmartGridNetwork.house1.app[0] initialLoRaCR 4
par SmartGridNetwork.house1.app[0] initialUseHeader true
par SmartGridNetwork.house1.app[0] evaluateADRinNode true
par SmartGridNetwork.house1.app[0] dataSize 10B
attr unit B
par SmartGridNetwork.house1.app[0] maxQueueSize 10
par SmartGridNetwork.house1.app[0] outageInterval 1000s
attr unit s
scalar SmartGridNetwork.house1.app[0] positionX 500
scalar SmartGridNetwork.house1.app[0] positionY 450
scalar SmartGridNetwork.house1.app[0] finalTP 8
scalar SmartGridNetwork.house1.app[0] finalSF 8
scalar SmartGridNetwork.house1.app[0] sentPackets 21
scalar SmartGridNetwork.house1.app[0] receivedADRCommands 0
scalar SmartGridNetwork.house1.app[0] maxQueueSizeUsed 9
scalar SmartGridNetwork.house1.app[0] LoRa_AppPacketSent:count 21
attr recordingmode count
attr source LoRa_AppPacketSent
par SmartGridNetwork.house1 typename "\"flora.LoraNode.LoRaNode\""
par SmartGridNetwork.house1 numApps 1
par SmartGridNetwork.house1 deploymentType "\"\""
par SmartGridNetwork.house1 maxGatewayDistance 320
par SmartGridNetwork.house1 gatewayX 320
par SmartGridNetwork.house1 gatewayY 320
par SmartGridNetwork.house2.interfaceTable typename "\"inet.networklayer.common.InterfaceTable\""
par SmartGridNetwork.house2.interfaceTable displayAddresses false
par SmartGridNetwork.house2.mobility typename "\"inet.mobility.static.StationaryMobility\""
par SmartGridNetwork.house2.mobility subjectModule "\"^\""
par SmartGridNetwork.house2.mobility coordinateSystemModule "\"\""
par SmartGridNetwork.house2.mobility displayStringTextFormat "\"p: %p\\nv: %v\""
attr mutable ""
par SmartGridNetwork.house2.mobility updateDisplayString true
par SmartGridNetwork.house2.mobility constraintAreaMinX 0m
attr unit m
par SmartGridNetwork.house2.mobility constraintAreaMinY 0m
attr unit m
par SmartGridNetwork.house2.mobility constraintAreaMinZ 0m
attr unit m
par SmartGridNetwork.house2.mobility constraintAreaMaxX 2376m
attr unit m
par SmartGridNetwork.house2.mobility constraintAreaMaxY 1090m
attr unit m
par SmartGridNetwork.house2.mobility constraintAreaMaxZ 0m
attr unit m
par SmartGridNetwork.house2.mobility initialX 550m
attr unit m
par SmartGridNetwork.house2.mobility initialY 450m
attr unit m
par SmartGridNetwork.house2.mobility initialZ 0m
attr unit m
par SmartGridNetwork.house2.mobility initialLatitude "nan deg"
attr unit deg
par SmartGridNetwork.house2.mobility initialLongitude "nan deg"
attr unit deg
par SmartGridNetwork.house2.mobility initialAltitude 0m
attr unit m
par SmartGridNetwork.house2.mobility initialHeading 0deg
attr unit deg
par SmartGridNetwork.house2.mobility initialElevation 0deg
attr unit deg
par SmartGridNetwork.house2.mobility initialBank 0deg
attr unit deg
par SmartGridNetwork.house2.mobility initFromDisplayString false
par SmartGridNetwork.house2.mobility updateFromDisplayString true
par SmartGridNetwork.house2.LoRaNic.radioIn.channel typename "\"ned.IdealChannel\""
par SmartGridNetwork.house2.LoRaNic.mac.upperLayerOut.channel typename "\"ned.IdealChannel\""
par SmartGridNetwork.house2.LoRaNic.upperLayerIn.channel typename "\"ned.IdealChannel\""
par SmartGridNetwork.house2.LoRaNic.queue typename "\"inet.queueing.queue.DropTailQueue\""
par SmartGridNetwork.house2.LoRaNic.queue displayStringTextFormat "\"contains %p pk (%l) pushed %u\\npulled %o removed %r dropped %d\""
par SmartGridNetwork.house2.LoRaNic.queue packetCapacity -1
par SmartGridNetwork.house2.LoRaNic.queue dataCapacity -1b
attr unit b
par SmartGridNetwork.house2.LoRaNic.queue dropperClass "\"inet::queueing::PacketAtCollectionEndDropper\""
par SmartGridNetwork.house2.LoRaNic.queue comparatorClass "\"\""
par SmartGridNetwork.house2.LoRaNic.queue bufferModule "\"\""
scalar SmartGridNetwork.house2.LoRaNic.queue queueLength:last 0
attr autoWarmupFilter false
attr interpolationmode sample-hold
attr recordingmode last
attr source "warmup(atomic(constant0(packetPushEnded) + count(packetPushStarted) - count(packetPulled) - count(packetRemoved) - count(packetDropped)))"
attr title "queue length, last"
attr unit pk
scalar SmartGridNetwork.house2.LoRaNic.queue queueLength:max 0
attr autoWarmupFilter false
attr interpolationmode sample-hold
attr recordingmode max
attr source "warmup(atomic(constant0(packetPushEnded) + count(packetPushStarted) - count(packetPulled) - count(packetRemoved) - count(packetDropped)))"
attr title "queue length, max"
attr unit pk
scalar SmartGridNetwork.house2.LoRaNic.queue queueLength:timeavg 0
attr autoWarmupFilter false
attr interpolationmode sample-hold
attr recordingmode timeavg
attr source "warmup(atomic(constant0(packetPushEnded) + count(packetPushStarted) - count(packetPulled) - count(packetRemoved) - count(packetDropped)))"
attr title "queue length, timeavg"
attr unit pk
scalar SmartGridNetwork.house2.LoRaNic.queue queueBitLength:last 0
attr autoWarmupFilter false
attr interpolationmode sample-hold
attr recordingmode last
attr source "warmup(atomic(constant0(packetPushEnded) + sum(packetLength(packetPushStarted)) - sum(packetLength(packetPulled)) - sum(packetLength(packetRemoved)) - sum(packetLength(packetDropped))))"
attr title "queue bit length, last"
attr unit b
scalar SmartGridNetwork.house2.LoRaNic.queue queueBitLength:max 0
attr autoWarmupFilter false
attr interpolationmode sample-hold
attr recordingmode max
attr source "warmup(atomic(constant0(packetPushEnded) + sum(packetLength(packetPushStarted)) - sum(packetLength(packetPulled)) - sum(packetLength(packetRemoved)) - sum(packetLength(packetDropped))))"
attr title "queue bit length, max"
attr unit b
scalar SmartGridNetwork.house2.LoRaNic.queue queueBitLength:timeavg 0
attr autoWarmupFilter false
attr interpolationmode sample-hold
attr recordingmode timeavg
attr source "warmup(atomic(constant0(packetPushEnded) + sum(packetLength(packetPushStarted)) - sum(packetLength(packetPulled)) - sum(packetLength(packetRemoved)) - sum(packetLength(packetDropped))))"
attr title "queue bit length, timeavg"
attr unit b
statistic SmartGridNetwork.house2.LoRaNic.queue queueingTime:histogram
field count 27
field mean 0
field stddev 0
field min 0
field max 0
field sum 0
field sqrsum 0
attr interpolationmode none
attr recordingmode histogram
attr source queueingTime(packetPulled)
attr title "queueing times"
attr unit s
bin	-inf	0
bin	-0.5	0
bin	-0.48	0
bin	-0.46	0
bin	-0.44	0
bin	-0.42	0
bin	-0.4	0
bin	-0.38	0
bin	-0.36	0
bin	-0.34	0
bin	-0.32	0
bin	-0.3	0
bin	-0.28	0
bin	-0.26	0
bin	-0.24	0
bin	-0.22	0
bin	-0.2	0
bin	-0.18	0
bin	-0.16	0
bin	-0.14	0
bin	-0.12	0
bin	-0.1	0
bin	-0.08	0
bin	-0.06	0
bin	-0.04	0
bin	-0.02	0
bin	0	27
bin	0.02	0
bin	0.04	0
bin	0.06	0
bin	0.08	0
bin	0.1	0
bin	0.12	0
bin	0.14	0
bin	0.16	0
bin	0.18	0
bin	0.2	0
bin	0.22	0
bin	0.24	0
bin	0.26	0
bin	0.28	0
bin	0.3	0
bin	0.32	0
bin	0.34	0
bin	0.36	0
bin	0.38	0
bin	0.4	0
bin	0.42	0
bin	0.44	0
bin	0.46	0
bin	0.48	0
bin	0.5	0
scalar SmartGridNetwork.house2.LoRaNic.queue outgoingPackets:count 27
attr recordingmode count
attr source packetPulled
attr title "outgoing packets, count"
attr unit pk
scalar SmartGridNetwork.house2.LoRaNic.queue outgoingPacketLengths:sum 2160
attr interpolationmode none
attr recordingmode sum
attr source packetLength(packetPulled)
attr title "outgoing packet lengths, sum"
attr unit b
statistic SmartGridNetwork.house2.LoRaNic.queue outgoingPacketLengths:histogram
field count 27
field mean 80
field stddev 0
field min 80
field max 80
field sum 2160
field sqrsum 172800
attr interpolationmode none
attr recordingmode histogram
attr source packetLength(packetPulled)
attr title "outgoing packet lengths"
attr unit b
bin	-inf	0
bin	79	0
bin	80	27
bin	81	0
statistic SmartGridNetwork.house2.LoRaNic.queue flowQueueingTime:histogram
field count 0
field mean -nan
field stddev nan
field min nan
field max nan
field sum 0
field sqrsum 0
attr interpolationmode none
attr recordingmode histogram
attr source queueingTime(demuxFlow(packetPulled))
attr title "flow queueing times"
attr unit s
bin	-inf	0
bin	0	0
bin	1	0
scalar SmartGridNetwork.house2.LoRaNic.queue incomingPackets:count 27
attr recordingmode count
attr source packetPushStarted
attr title "incoming packets, count"
attr unit pk
scalar SmartGridNetwork.house2.LoRaNic.queue incomingPacketLengths:sum 2160
attr interpolationmode none
attr recordingmode sum
attr source packetLength(packetPushStarted)
attr title "incoming packet lengths, sum"
attr unit b
statistic SmartGridNetwork.house2.LoRaNic.queue incomingPacketLengths:histogram
field count 27
field mean 80
field stddev 0
field min 80
field max 80
field sum 2160
field sqrsum 172800
attr interpolationmode none
attr recordingmode histogram
attr source packetLength(packetPushStarted)
attr title "incoming packet lengths"
attr unit b
bin	-inf	0
bin	79	0
bin	80	27
bin	81	0
scalar SmartGridNetwork.house2.LoRaNic.queue droppedPacketsQueueOverflow:count 0
attr interpolationmode none
attr recordingmode count
attr source packetDropReasonIsQueueOverflow(packetDropped)
attr title "dropped packets: queue overflow, count"
attr unit pk
scalar SmartGridNetwork.house2.LoRaNic.queue droppedPacketLengthsQueueOverflow:sum 0
attr interpolationmode none
attr recordingmode sum
attr source packetLength(packetDropReasonIsQueueOverflow(packetDropped))
attr title "dropped packet lengths: queue overflow, sum"
attr unit b
par SmartGridNetwork.house2.LoRaNic.mac typename "\"flora.LoRa.LoRaMac\""
par SmartGridNetwork.house2.LoRaNic.mac interfaceTableModule "\"SmartGridNetwork.house2.interfaceTable\""
par SmartGridNetwork.house2.LoRaNic.mac radioModule "\"^.radio\""
par SmartGridNetwork.house2.LoRaNic.mac address "\"0A-AA-00-00-00-02\""
attr mutable ""
par SmartGridNetwork.house2.LoRaNic.mac fcsMode "\"declared\""
attr enum declared,computed
par SmartGridNetwork.house2.LoRaNic.mac useAck true
par SmartGridNetwork.house2.LoRaNic.mac bitrate 250bps
attr unit bps
par SmartGridNetwork.house2.LoRaNic.mac headerLength 17B
attr unit B
par SmartGridNetwork.house2.LoRaNic.mac ackLength 14B
attr unit B
par SmartGridNetwork.house2.LoRaNic.mac sifsTime 1e-05s
attr unit s
par SmartGridNetwork.house2.LoRaNic.mac slotTime 2e-05s
attr unit s
par SmartGridNetwork.house2.LoRaNic.mac difsTime 5e-05s
attr unit s
par SmartGridNetwork.house2.LoRaNic.mac ackTimeout 0.44803s
attr unit s
par SmartGridNetwork.house2.LoRaNic.mac mtu 1500
par SmartGridNetwork.house2.LoRaNic.mac cwMin 31
par SmartGridNetwork.house2.LoRaNic.mac cwMax 1023
par SmartGridNetwork.house2.LoRaNic.mac cwMulticast 31
par SmartGridNetwork.house2.LoRaNic.mac retryLimit 7
scalar SmartGridNetwork.house2.LoRaNic.mac numRetry 0
scalar SmartGridNetwork.house2.LoRaNic.mac numSentWithoutRetry 0
scalar SmartGridNetwork.house2.LoRaNic.mac numGivenUp 0
scalar SmartGridNetwork.house2.LoRaNic.mac numSent 27
scalar SmartGridNetwork.house2.LoRaNic.mac numReceived 0
scalar SmartGridNetwork.house2.LoRaNic.mac numSentBroadcast 0
scalar SmartGridNetwork.house2.LoRaNic.mac numReceivedBroadcast 0
scalar SmartGridNetwork.house2.LoRaNic.mac packetDropIncorrectlyReceived:count 0
attr interpolationmode none
attr recordingmode count
attr source packetDropReasonIsIncorrectlyReceived(packetDropped)
attr title "packet drop: incorrectly received, count"
scalar SmartGridNetwork.house2.LoRaNic.mac packetDropIncorrectlyReceived:sum(packetBytes) 0
attr interpolationmode none
attr recordingmode sum(packetBytes)
attr source packetDropReasonIsIncorrectlyReceived(packetDropped)
attr title "packet drop: incorrectly received, sum(packetBytes)"
scalar SmartGridNetwork.house2.LoRaNic.mac packetDropNotAddressedToUs:count 0
attr interpolationmode none
attr recordingmode count
attr source packetDropReasonIsNotAddressedToUs(packetDropped)
attr title "packet drop: not addressed to us, count"
scalar SmartGridNetwork.house2.LoRaNic.mac packetDropNotAddressedToUs:sum(packetBytes) 0
attr interpolationmode none
attr recordingmode sum(packetBytes)
attr source packetDropReasonIsNotAddressedToUs(packetDropped)
attr title "packet drop: not addressed to us, sum(packetBytes)"
scalar SmartGridNetwork.house2.LoRaNic.mac packetDropQueueOverflow:count 0
attr interpolationmode none
attr recordingmode count
attr source packetDropReasonIsQueueOverflow(packetDropped)
attr title "packet drop: queue overflow, count"
scalar SmartGridNetwork.house2.LoRaNic.mac packetDropQueueOverflow:sum(packetBytes) 0
attr interpolationmode none
attr recordingmode sum(packetBytes)
attr source packetDropReasonIsQueueOverflow(packetDropped)
attr title "packet drop: queue overflow, sum(packetBytes)"
scalar SmartGridNetwork.house2.LoRaNic.mac packetDropRetryLimitReached:count 0
attr interpolationmode none
attr recordingmode count
attr source packetDropReasonIsRetryLimitReached(packetDropped)
attr title "packet drop: retry limit reached, count"
scalar SmartGridNetwork.house2.LoRaNic.mac packetDropRetryLimitReached:sum(packetBytes) 0
attr interpolationmode none
attr recordingmode sum(packetBytes)
attr source packetDropReasonIsRetryLimitReached(packetDropped)
attr title "packet drop: retry limit reached, sum(packetBytes)"
scalar SmartGridNetwork.house2.LoRaNic.mac linkBroken:count 0
attr interpolationmode none
attr recordingmode count
attr source linkBroken
attr title "link break, count"
par SmartGridNetwork.house2.LoRaNic.radio.antenna typename "\"inet.physicallayer.wireless.common.antenna.IsotropicAntenna\""
par SmartGridNetwork.house2.LoRaNic.radio.antenna mobilityModule "\"^.^.^.mobility\""
par SmartGridNetwork.house2.LoRaNic.radio.antenna numAntennas 1
par SmartGridNetwork.house2.LoRaNic.radio.transmitter typename "\"flora.LoRaPhy.LoRaTransmitter\""
par SmartGridNetwork.house2.LoRaNic.radio.transmitter preambleDuration 0.001s
attr unit s
par SmartGridNetwork.house2.LoRaNic.radio.transmitter headerLength 0b
attr unit b
par SmartGridNetwork.house2.LoRaNic.radio.transmitter bitrate 250000bps
attr unit bps
par SmartGridNetwork.house2.LoRaNic.radio.transmitter power 0.025118W
attr unit W
par SmartGridNetwork.house2.LoRaNic.radio.transmitter centerFrequency 8.68e+08Hz
attr unit Hz
par SmartGridNetwork.house2.LoRaNic.radio.transmitter bandwidth 250000Hz
attr unit Hz
par SmartGridNetwork.house2.LoRaNic.radio.transmitter modulation "\"LoRaModulation\""
scalar SmartGridNetwork.house2.LoRaNic.radio.transmitter LoRaTransmissionCreated:count 27
attr recordingmode count
attr source LoRaTransmissionCreated
par SmartGridNetwork.house2.LoRaNic.radio.receiver typename "\"flora.LoRaPhy.LoRaReceiver\""
par SmartGridNetwork.house2.LoRaNic.radio.receiver snirThreshold -8dB
attr unit dB
par SmartGridNetwork.house2.LoRaNic.radio.receiver snirThresholdMode "\"min\""
attr unit min,mean
par SmartGridNetwork.house2.LoRaNic.radio.receiver energyDetection -110dBm
attr unit dBm
par SmartGridNetwork.house2.LoRaNic.radio.receiver sensitivity -137dBm
attr unit dBm
par SmartGridNetwork.house2.LoRaNic.radio.receiver centerFrequency 8.68e+08Hz
attr unit Hz
par SmartGridNetwork.house2.LoRaNic.radio.receiver bandwidth 250000Hz
attr unit Hz
par SmartGridNetwork.house2.LoRaNic.radio.receiver modulation "\"BPSK\""
par SmartGridNetwork.house2.LoRaNic.radio.receiver alohaChannelModel false
scalar SmartGridNetwork.house2.LoRaNic.radio.receiver numCollisions 0
scalar SmartGridNetwork.house2.LoRaNic.radio.receiver rcvBelowSensitivity 0
scalar SmartGridNetwork.house2.LoRaNic.radio.receiver LoRaReceptionCollision:count 0
attr recordingmode count
attr source LoRaReceptionCollision
par SmartGridNetwork.house2.LoRaNic.radio.energyConsumer typename "\"flora.LoRaEnergyModules.LoRaEnergyConsumer\""
par SmartGridNetwork.house2.LoRaNic.radio.energyConsumer energySourceModule "\"^.IdealEpEnergyStorage\""
par SmartGridNetwork.house2.LoRaNic.radio.energyConsumer offPowerConsumption 0W
attr unit W
par SmartGridNetwork.house2.LoRaNic.radio.energyConsumer sleepPowerConsumption 0.001W
attr unit W
par SmartGridNetwork.house2.LoRaNic.radio.energyConsumer switchingPowerConsumption 0.001W
attr unit W
par SmartGridNetwork.house2.LoRaNic.radio.energyConsumer receiverIdlePowerConsumption 0.002W
attr unit W
par SmartGridNetwork.house2.LoRaNic.radio.energyConsumer receiverBusyPowerConsumption 0.005W
attr unit W
par SmartGridNetwork.house2.LoRaNic.radio.energyConsumer receiverReceivingPowerConsumption 0.01W
attr unit W
par SmartGridNetwork.house2.LoRaNic.radio.energyConsumer receiverReceivingPreamblePowerConsumption 0.01W
attr unit W
par SmartGridNetwork.house2.LoRaNic.radio.energyConsumer receiverReceivingHeaderPowerConsumption 0.01W
attr unit W
par SmartGridNetwork.house2.LoRaNic.radio.energyConsumer receiverReceivingDataPowerConsumption 0.01W
attr unit W
par SmartGridNetwork.house2.LoRaNic.radio.energyConsumer transmitterIdlePowerConsumption 0.002W
attr unit W
par SmartGridNetwork.house2.LoRaNic.radio.energyConsumer transmitterTransmittingPowerConsumption 0.1W
attr unit W
par SmartGridNetwork.house2.LoRaNic.radio.energyConsumer transmitterTransmittingPreamblePowerConsumption 0.1W
attr unit W
par SmartGridNetwork.house2.LoRaNic.radio.energyConsumer transmitterTransmittingHeaderPowerConsumption 0.1W
attr unit W
par SmartGridNetwork.house2.LoRaNic.radio.energyConsumer transmitterTransmittingDataPowerConsumption 0.1W
attr unit W
par SmartGridNetwork.house2.LoRaNic.radio.energyConsumer configFile "<root>...</root> at /home/duru/omnetpp-6.0/samples/flora/simulations/energyConsumptionParameters.xml:2"
scalar SmartGridNetwork.house2.LoRaNic.radio.energyConsumer totalEnergyConsumed 2.27825136
par SmartGridNetwork.house2.LoRaNic.radio.IdealEpEnergyStorage typename "\"inet.power.storage.IdealEpEnergyStorage\""
scalar SmartGridNetwork.house2.LoRaNic.radio.IdealEpEnergyStorage residualEnergyCapacity:last -2.27825136
attr interpolationmode linear
attr recordingmode last
attr source residualEnergyCapacityChanged
attr title "Residual energy capacity, last"
par SmartGridNetwork.house2.LoRaNic.radio typename "\"flora.LoRa.LoRaRadio\""
par SmartGridNetwork.house2.LoRaNic.radio radioMediumModule "\"LoRaMedium\""
par SmartGridNetwork.house2.LoRaNic.radio energySourceModule "\"^.IdealEpEnergyStorage\""
par SmartGridNetwork.house2.LoRaNic.radio initialRadioMode "\"off\""
attr enum off,sleep,receiver,transmitter,transceiver
par SmartGridNetwork.house2.LoRaNic.radio switchingTimes "\"ms 0 0 0 0 0 0 0 0 0 0 0 0 0 0 0 0 0 0 0 0 0 0 0 0 0\""
par SmartGridNetwork.house2.LoRaNic.radio sendRawBytes false
par SmartGridNetwork.house2.LoRaNic.radio separateTransmissionParts false
par SmartGridNetwork.house2.LoRaNic.radio separateReceptionParts false
par SmartGridNetwork.house2.LoRaNic.radio displayCommunicationRange false
par SmartGridNetwork.house2.LoRaNic.radio displayInterferenceRange false
par SmartGridNetwork.house2.LoRaNic.radio centerFrequency 8.68e+08Hz
attr unit Hz
par SmartGridNetwork.house2.LoRaNic.radio bandwidth 250000Hz
attr unit Hz
par SmartGridNetwork.house2.LoRaNic.radio iAmGateway false
scalar SmartGridNetwork.house2.LoRaNic.radio radioMode:count 165
attr interpolationmode sample-hold
attr recordingmode count
attr source radioModeChanged
attr title "Radio mode, count"
scalar SmartGridNetwork.house2.LoRaNic.radio receptionState:count 108
attr interpolationmode sample-hold
attr recordingmode count
attr source receptionStateChanged
attr title "Radio reception state, count"
scalar SmartGridNetwork.house2.LoRaNic.radio transmissionState:count 108
attr interpolationmode sample-hold
attr recordingmode count
attr source transmissionStateChanged
attr title "Radio transmission state, count"
statistic SmartGridNetwork.house2.LoRaNic.radio minSnir:histogram
field count 0
field mean -nan
field stddev nan
field min nan
field max nan
field sum 0
field sqrsum 0
attr recordingmode histogram
attr source minimumSnir(packetSentToUpper)
attr title "Min SNIR"
bin	-inf	0
bin	0	0
bin	1	0
statistic SmartGridNetwork.house2.LoRaNic.radio packetErrorRate:histogram
field count 0
field mean -nan
field stddev nan
field min nan
field max nan
field sum 0
field sqrsum 0
attr recordingmode histogram
attr source packetErrorRate(packetSentToUpper)
attr title "Packet error rate"
bin	-inf	0
bin	0	0
bin	1	0
statistic SmartGridNetwork.house2.LoRaNic.radio bitErrorRate:histogram
field count 0
field mean -nan
field stddev nan
field min nan
field max nan
field sum 0
field sqrsum 0
attr recordingmode histogram
attr source bitErrorRate(packetSentToUpper)
attr title "Bit error rate"
bin	-inf	0
bin	0	0
bin	1	0
statistic SmartGridNetwork.house2.LoRaNic.radio symbolErrorRate:histogram
field count 0
field mean -nan
field stddev nan
field min nan
field max nan
field sum 0
field sqrsum 0
attr recordingmode histogram
attr source symbolErrorRate(packetSentToUpper)
attr title "Symbol error rate"
bin	-inf	0
bin	0	0
bin	1	0
par SmartGridNetwork.house2.LoRaNic typename "\"flora.LoRa.LoRaNic\""
par SmartGridNetwork.house2.LoRaNic displayStringTextFormat "\"%a (%i)\\n%m\""
par SmartGridNetwork.house2.LoRaNic recordPcap false
par SmartGridNetwork.house2.LoRaNic numPcapRecorders 0
par SmartGridNetwork.house2.LoRaNic interfaceTableModule "\"SmartGridNetwork.house2.interfaceTable\""
par SmartGridNetwork.house2.LoRaNic energySourceModule "\"^.IdealEpEnergyStorage\""
par SmartGridNetwork.house2.LoRaNic protocol "\"\""
scalar SmartGridNetwork.house2.LoRaNic packetDropInterfaceDown:count 0
attr interpolationmode none
attr recordingmode count
attr source packetDropReasonIsInterfaceDown(packetDropped)
attr title "packet drops: interface down, count"
scalar SmartGridNetwork.house2.LoRaNic packetDropInterfaceDown:sum(packetBytes) 0
attr interpolationmode none
attr recordingmode sum(packetBytes)
attr source packetDropReasonIsInterfaceDown(packetDropped)
attr title "packet drops: interface down, sum(packetBytes)"
scalar SmartGridNetwork.house2.LoRaNic packetDropNoCarrier:count 0
attr interpolationmode none
attr recordingmode count
attr source packetDropReasonIsNoCarrier(packetDropped)
attr title "packet drops: no carrier, count"
scalar SmartGridNetwork.house2.LoRaNic packetDropNoCarrier:sum(packetBytes) 0
attr interpolationmode none
attr recordingmode sum(packetBytes)
attr source packetDropReasonIsNoCarrier(packetDropped)
attr title "packet drops: no carrier, sum(packetBytes)"
par SmartGridNetwork.house2.app[0] typename "\"flora.LoRaApp.SimpleLoRaApp\""
par SmartGridNetwork.house2.app[0] numberOfPacketsToSend 0
par SmartGridNetwork.house2.app[0] timeToFirstPacket exponential(1000s)
attr unit s
par SmartGridNetwork.house2.app[0] timeToNextPacket exponential(1000s)
attr unit s
par SmartGridNetwork.house2.app[0] initialLoRaTP 8dBm
attr unit dBm
par SmartGridNetwork.house2.app[0] initialLoRaCF 8.68e+08Hz
attr unit Hz
par SmartGridNetwork.house2.app[0] initialLoRaSF 9
par SmartGridNetwork.house2.app[0] initialLoRaBW 125000Hz
attr unit Hz
par SmartGridNetwork.house2.app[0] initialLoRaCR 4
par SmartGridNetwork.house2.app[0] initialUseHeader true
par SmartGridNetwork.house2.app[0] evaluateADRinNode true
par SmartGridNetwork.house2.app[0] dataSize 10B
attr unit B
par SmartGridNetwork.house2.app[0] maxQueueSize 10
par SmartGridNetwork.house2.app[0] outageInterval 1000s
attr unit s
scalar SmartGridNetwork.house2.app[0] positionX 550
scalar SmartGridNetwork.house2.app[0] positionY 450
scalar SmartGridNetwork.house2.app[0] finalTP 8
scalar SmartGridNetwork.house2.app[0] finalSF 9
scalar SmartGridNetwork.house2.app[0] sentPackets 27
scalar SmartGridNetwork.house2.app[0] receivedADRCommands 0
scalar SmartGridNetwork.house2.app[0] maxQueueSizeUsed 9
scalar SmartGridNetwork.house2.app[0] LoRa_AppPacketSent:count 27
attr recordingmode count
attr source LoRa_AppPacketSent
par SmartGridNetwork.house2 typename "\"flora.LoraNode.LoRaNode\""
par SmartGridNetwork.house2 numApps 1
par SmartGridNetwork.house2 deploymentType "\"\""
par SmartGridNetwork.house2 maxGatewayDistance 320
par SmartGridNetwork.house2 gatewayX 320
par SmartGridNetwork.house2 gatewayY 320
par SmartGridNetwork.house3.interfaceTable typename "\"inet.networklayer.common.InterfaceTable\""
par SmartGridNetwork.house3.interfaceTable displayAddresses false
par SmartGridNetwork.house3.mobility typename "\"inet.mobility.static.StationaryMobility\""
par SmartGridNetwork.house3.mobility subjectModule "\"^\""
par SmartGridNetwork.house3.mobility coordinateSystemModule "\"\""
par SmartGridNetwork.house3.mobility displayStringTextFormat "\"p: %p\\nv: %v\""
attr mutable ""
par SmartGridNetwork.house3.mobility updateDisplayString true
par SmartGridNetwork.house3.mobility constraintAreaMinX 0m
attr unit m
par SmartGridNetwork.house3.mobility constraintAreaMinY 0m
attr unit m
par SmartGridNetwork.house3.mobility constraintAreaMinZ 0m
attr unit m
par SmartGridNetwork.house3.mobility constraintAreaMaxX 2376m
attr unit m
par SmartGridNetwork.house3.mobility constraintAreaMaxY 1090m
attr unit m
par SmartGridNetwork.house3.mobility constraintAreaMaxZ 0m
attr unit m
par SmartGridNetwork.house3.mobility initialX 600m
attr unit m
par SmartGridNetwork.house3.mobility initialY 450m
attr unit m
par SmartGridNetwork.house3.mobility initialZ 0m
attr unit m
par SmartGridNetwork.house3.mobility initialLatitude "nan deg"
attr unit deg
par SmartGridNetwork.house3.mobility initialLongitude "nan deg"
attr unit deg
par SmartGridNetwork.house3.mobility initialAltitude 0m
attr unit m
par SmartGridNetwork.house3.mobility initialHeading 0deg
attr unit deg
par SmartGridNetwork.house3.mobility initialElevation 0deg
attr unit deg
par SmartGridNetwork.house3.mobility initialBank 0deg
attr unit deg
par SmartGridNetwork.house3.mobility initFromDisplayString false
par SmartGridNetwork.house3.mobility updateFromDisplayString true
par SmartGridNetwork.house3.LoRaNic.radioIn.channel typename "\"ned.IdealChannel\""
par SmartGridNetwork.house3.LoRaNic.mac.upperLayerOut.channel typename "\"ned.IdealChannel\""
par SmartGridNetwork.house3.LoRaNic.upperLayerIn.channel typename "\"ned.IdealChannel\""
par SmartGridNetwork.house3.LoRaNic.queue typename "\"inet.queueing.queue.DropTailQueue\""
par SmartGridNetwork.house3.LoRaNic.queue displayStringTextFormat "\"contains %p pk (%l) pushed %u\\npulled %o removed %r dropped %d\""
par SmartGridNetwork.house3.LoRaNic.queue packetCapacity -1
par SmartGridNetwork.house3.LoRaNic.queue dataCapacity -1b
attr unit b
par SmartGridNetwork.house3.LoRaNic.queue dropperClass "\"inet::queueing::PacketAtCollectionEndDropper\""
par SmartGridNetwork.house3.LoRaNic.queue comparatorClass "\"\""
par SmartGridNetwork.house3.LoRaNic.queue bufferModule "\"\""
scalar SmartGridNetwork.house3.LoRaNic.queue queueLength:last 0
attr autoWarmupFilter false
attr interpolationmode sample-hold
attr recordingmode last
attr source "warmup(atomic(constant0(packetPushEnded) + count(packetPushStarted) - count(packetPulled) - count(packetRemoved) - count(packetDropped)))"
attr title "queue length, last"
attr unit pk
scalar SmartGridNetwork.house3.LoRaNic.queue queueLength:max 0
attr autoWarmupFilter false
attr interpolationmode sample-hold
attr recordingmode max
attr source "warmup(atomic(constant0(packetPushEnded) + count(packetPushStarted) - count(packetPulled) - count(packetRemoved) - count(packetDropped)))"
attr title "queue length, max"
attr unit pk
scalar SmartGridNetwork.house3.LoRaNic.queue queueLength:timeavg 0
attr autoWarmupFilter false
attr interpolationmode sample-hold
attr recordingmode timeavg
attr source "warmup(atomic(constant0(packetPushEnded) + count(packetPushStarted) - count(packetPulled) - count(packetRemoved) - count(packetDropped)))"
attr title "queue length, timeavg"
attr unit pk
scalar SmartGridNetwork.house3.LoRaNic.queue queueBitLength:last 0
attr autoWarmupFilter false
attr interpolationmode sample-hold
attr recordingmode last
attr source "warmup(atomic(constant0(packetPushEnded) + sum(packetLength(packetPushStarted)) - sum(packetLength(packetPulled)) - sum(packetLength(packetRemoved)) - sum(packetLength(packetDropped))))"
attr title "queue bit length, last"
attr unit b
scalar SmartGridNetwork.house3.LoRaNic.queue queueBitLength:max 0
attr autoWarmupFilter false
attr interpolationmode sample-hold
attr recordingmode max
attr source "warmup(atomic(constant0(packetPushEnded) + sum(packetLength(packetPushStarted)) - sum(packetLength(packetPulled)) - sum(packetLength(packetRemoved)) - sum(packetLength(packetDropped))))"
attr title "queue bit length, max"
attr unit b
scalar SmartGridNetwork.house3.LoRaNic.queue queueBitLength:timeavg 0
attr autoWarmupFilter false
attr interpolationmode sample-hold
attr recordingmode timeavg
attr source "warmup(atomic(constant0(packetPushEnded) + sum(packetLength(packetPushStarted)) - sum(packetLength(packetPulled)) - sum(packetLength(packetRemoved)) - sum(packetLength(packetDropped))))"
attr title "queue bit length, timeavg"
attr unit b
statistic SmartGridNetwork.house3.LoRaNic.queue queueingTime:histogram
field count 28
field mean 0
field stddev 0
field min 0
field max 0
field sum 0
field sqrsum 0
attr interpolationmode none
attr recordingmode histogram
attr source queueingTime(packetPulled)
attr title "queueing times"
attr unit s
bin	-inf	0
bin	-0.5	0
bin	-0.48	0
bin	-0.46	0
bin	-0.44	0
bin	-0.42	0
bin	-0.4	0
bin	-0.38	0
bin	-0.36	0
bin	-0.34	0
bin	-0.32	0
bin	-0.3	0
bin	-0.28	0
bin	-0.26	0
bin	-0.24	0
bin	-0.22	0
bin	-0.2	0
bin	-0.18	0
bin	-0.16	0
bin	-0.14	0
bin	-0.12	0
bin	-0.1	0
bin	-0.08	0
bin	-0.06	0
bin	-0.04	0
bin	-0.02	0
bin	0	28
bin	0.02	0
bin	0.04	0
bin	0.06	0
bin	0.08	0
bin	0.1	0
bin	0.12	0
bin	0.14	0
bin	0.16	0
bin	0.18	0
bin	0.2	0
bin	0.22	0
bin	0.24	0
bin	0.26	0
bin	0.28	0
bin	0.3	0
bin	0.32	0
bin	0.34	0
bin	0.36	0
bin	0.38	0
bin	0.4	0
bin	0.42	0
bin	0.44	0
bin	0.46	0
bin	0.48	0
bin	0.5	0
scalar SmartGridNetwork.house3.LoRaNic.queue outgoingPackets:count 28
attr recordingmode count
attr source packetPulled
attr title "outgoing packets, count"
attr unit pk
scalar SmartGridNetwork.house3.LoRaNic.queue outgoingPacketLengths:sum 2240
attr interpolationmode none
attr recordingmode sum
attr source packetLength(packetPulled)
attr title "outgoing packet lengths, sum"
attr unit b
statistic SmartGridNetwork.house3.LoRaNic.queue outgoingPacketLengths:histogram
field count 28
field mean 80
field stddev 0
field min 80
field max 80
field sum 2240
field sqrsum 179200
attr interpolationmode none
attr recordingmode histogram
attr source packetLength(packetPulled)
attr title "outgoing packet lengths"
attr unit b
bin	-inf	0
bin	79	0
bin	80	28
bin	81	0
statistic SmartGridNetwork.house3.LoRaNic.queue flowQueueingTime:histogram
field count 0
field mean -nan
field stddev nan
field min nan
field max nan
field sum 0
field sqrsum 0
attr interpolationmode none
attr recordingmode histogram
attr source queueingTime(demuxFlow(packetPulled))
attr title "flow queueing times"
attr unit s
bin	-inf	0
bin	0	0
bin	1	0
scalar SmartGridNetwork.house3.LoRaNic.queue incomingPackets:count 28
attr recordingmode count
attr source packetPushStarted
attr title "incoming packets, count"
attr unit pk
scalar SmartGridNetwork.house3.LoRaNic.queue incomingPacketLengths:sum 2240
attr interpolationmode none
attr recordingmode sum
attr source packetLength(packetPushStarted)
attr title "incoming packet lengths, sum"
attr unit b
statistic SmartGridNetwork.house3.LoRaNic.queue incomingPacketLengths:histogram
field count 28
field mean 80
field stddev 0
field min 80
field max 80
field sum 2240
field sqrsum 179200
attr interpolationmode none
attr recordingmode histogram
attr source packetLength(packetPushStarted)
attr title "incoming packet lengths"
attr unit b
bin	-inf	0
bin	79	0
bin	80	28
bin	81	0
scalar SmartGridNetwork.house3.LoRaNic.queue droppedPacketsQueueOverflow:count 0
attr interpolationmode none
attr recordingmode count
attr source packetDropReasonIsQueueOverflow(packetDropped)
attr title "dropped packets: queue overflow, count"
attr unit pk
scalar SmartGridNetwork.house3.LoRaNic.queue droppedPacketLengthsQueueOverflow:sum 0
attr interpolationmode none
attr recordingmode sum
attr source packetLength(packetDropReasonIsQueueOverflow(packetDropped))
attr title "dropped packet lengths: queue overflow, sum"
attr unit b
par SmartGridNetwork.house3.LoRaNic.mac typename "\"flora.LoRa.LoRaMac\""
par SmartGridNetwork.house3.LoRaNic.mac interfaceTableModule "\"SmartGridNetwork.house3.interfaceTable\""
par SmartGridNetwork.house3.LoRaNic.mac radioModule "\"^.radio\""
par SmartGridNetwork.house3.LoRaNic.mac address "\"0A-AA-00-00-00-03\""
attr mutable ""
par SmartGridNetwork.house3.LoRaNic.mac fcsMode "\"declared\""
attr enum declared,computed
par SmartGridNetwork.house3.LoRaNic.mac useAck true
par SmartGridNetwork.house3.LoRaNic.mac bitrate 250bps
attr unit bps
par SmartGridNetwork.house3.LoRaNic.mac headerLength 17B
attr unit B
par SmartGridNetwork.house3.LoRaNic.mac ackLength 14B
attr unit B
par SmartGridNetwork.house3.LoRaNic.mac sifsTime 1e-05s
attr unit s
par SmartGridNetwork.house3.LoRaNic.mac slotTime 2e-05s
attr unit s
par SmartGridNetwork.house3.LoRaNic.mac difsTime 5e-05s
attr unit s
par SmartGridNetwork.house3.LoRaNic.mac ackTimeout 0.44803s
attr unit s
par SmartGridNetwork.house3.LoRaNic.mac mtu 1500
par SmartGridNetwork.house3.LoRaNic.mac cwMin 31
par SmartGridNetwork.house3.LoRaNic.mac cwMax 1023
par SmartGridNetwork.house3.LoRaNic.mac cwMulticast 31
par SmartGridNetwork.house3.LoRaNic.mac retryLimit 7
scalar SmartGridNetwork.house3.LoRaNic.mac numRetry 0
scalar SmartGridNetwork.house3.LoRaNic.mac numSentWithoutRetry 0
scalar SmartGridNetwork.house3.LoRaNic.mac numGivenUp 0
scalar SmartGridNetwork.house3.LoRaNic.mac numSent 28
scalar SmartGridNetwork.house3.LoRaNic.mac numReceived 0
scalar SmartGridNetwork.house3.LoRaNic.mac numSentBroadcast 0
scalar SmartGridNetwork.house3.LoRaNic.mac numReceivedBroadcast 0
scalar SmartGridNetwork.house3.LoRaNic.mac packetDropIncorrectlyReceived:count 0
attr interpolationmode none
attr recordingmode count
attr source packetDropReasonIsIncorrectlyReceived(packetDropped)
attr title "packet drop: incorrectly received, count"
scalar SmartGridNetwork.house3.LoRaNic.mac packetDropIncorrectlyReceived:sum(packetBytes) 0
attr interpolationmode none
attr recordingmode sum(packetBytes)
attr source packetDropReasonIsIncorrectlyReceived(packetDropped)
attr title "packet drop: incorrectly received, sum(packetBytes)"
scalar SmartGridNetwork.house3.LoRaNic.mac packetDropNotAddressedToUs:count 0
attr interpolationmode none
attr recordingmode count
attr source packetDropReasonIsNotAddressedToUs(packetDropped)
attr title "packet drop: not addressed to us, count"
scalar SmartGridNetwork.house3.LoRaNic.mac packetDropNotAddressedToUs:sum(packetBytes) 0
attr interpolationmode none
attr recordingmode sum(packetBytes)
attr source packetDropReasonIsNotAddressedToUs(packetDropped)
attr title "packet drop: not addressed to us, sum(packetBytes)"
scalar SmartGridNetwork.house3.LoRaNic.mac packetDropQueueOverflow:count 0
attr interpolationmode none
attr recordingmode count
attr source packetDropReasonIsQueueOverflow(packetDropped)
attr title "packet drop: queue overflow, count"
scalar SmartGridNetwork.house3.LoRaNic.mac packetDropQueueOverflow:sum(packetBytes) 0
attr interpolationmode none
attr recordingmode sum(packetBytes)
attr source packetDropReasonIsQueueOverflow(packetDropped)
attr title "packet drop: queue overflow, sum(packetBytes)"
scalar SmartGridNetwork.house3.LoRaNic.mac packetDropRetryLimitReached:count 0
attr interpolationmode none
attr recordingmode count
attr source packetDropReasonIsRetryLimitReached(packetDropped)
attr title "packet drop: retry limit reached, count"
scalar SmartGridNetwork.house3.LoRaNic.mac packetDropRetryLimitReached:sum(packetBytes) 0
attr interpolationmode none
attr recordingmode sum(packetBytes)
attr source packetDropReasonIsRetryLimitReached(packetDropped)
attr title "packet drop: retry limit reached, sum(packetBytes)"
scalar SmartGridNetwork.house3.LoRaNic.mac linkBroken:count 0
attr interpolationmode none
attr recordingmode count
attr source linkBroken
attr title "link break, count"
par SmartGridNetwork.house3.LoRaNic.radio.antenna typename "\"inet.physicallayer.wireless.common.antenna.IsotropicAntenna\""
par SmartGridNetwork.house3.LoRaNic.radio.antenna mobilityModule "\"^.^.^.mobility\""
par SmartGridNetwork.house3.LoRaNic.radio.antenna numAntennas 1
par SmartGridNetwork.house3.LoRaNic.radio.transmitter typename "\"flora.LoRaPhy.LoRaTransmitter\""
par SmartGridNetwork.house3.LoRaNic.radio.transmitter preambleDuration 0.001s
attr unit s
par SmartGridNetwork.house3.LoRaNic.radio.transmitter headerLength 0b
attr unit b
par SmartGridNetwork.house3.LoRaNic.radio.transmitter bitrate 250000bps
attr unit bps
par SmartGridNetwork.house3.LoRaNic.radio.transmitter power 0.025118W
attr unit W
par SmartGridNetwork.house3.LoRaNic.radio.transmitter centerFrequency 8.68e+08Hz
attr unit Hz
par SmartGridNetwork.house3.LoRaNic.radio.transmitter bandwidth 250000Hz
attr unit Hz
par SmartGridNetwork.house3.LoRaNic.radio.transmitter modulation "\"LoRaModulation\""
scalar SmartGridNetwork.house3.LoRaNic.radio.transmitter LoRaTransmissionCreated:count 28
attr recordingmode count
attr source LoRaTransmissionCreated
par SmartGridNetwork.house3.LoRaNic.radio.receiver typename "\"flora.LoRaPhy.LoRaReceiver\""
par SmartGridNetwork.house3.LoRaNic.radio.receiver snirThreshold -8dB
attr unit dB
par SmartGridNetwork.house3.LoRaNic.radio.receiver snirThresholdMode "\"min\""
attr unit min,mean
par SmartGridNetwork.house3.LoRaNic.radio.receiver energyDetection -110dBm
attr unit dBm
par SmartGridNetwork.house3.LoRaNic.radio.receiver sensitivity -137dBm
attr unit dBm
par SmartGridNetwork.house3.LoRaNic.radio.receiver centerFrequency 8.68e+08Hz
attr unit Hz
par SmartGridNetwork.house3.LoRaNic.radio.receiver bandwidth 250000Hz
attr unit Hz
par SmartGridNetwork.house3.LoRaNic.radio.receiver modulation "\"BPSK\""
par SmartGridNetwork.house3.LoRaNic.radio.receiver alohaChannelModel false
scalar SmartGridNetwork.house3.LoRaNic.radio.receiver numCollisions 0
scalar SmartGridNetwork.house3.LoRaNic.radio.receiver rcvBelowSensitivity 0
scalar SmartGridNetwork.house3.LoRaNic.radio.receiver LoRaReceptionCollision:count 0
attr recordingmode count
attr source LoRaReceptionCollision
par SmartGridNetwork.house3.LoRaNic.radio.energyConsumer typename "\"flora.LoRaEnergyModules.LoRaEnergyConsumer\""
par SmartGridNetwork.house3.LoRaNic.radio.energyConsumer energySourceModule "\"^.IdealEpEnergyStorage\""
par SmartGridNetwork.house3.LoRaNic.radio.energyConsumer offPowerConsumption 0W
attr unit W
par SmartGridNetwork.house3.LoRaNic.radio.energyConsumer sleepPowerConsumption 0.001W
attr unit W
par SmartGridNetwork.house3.LoRaNic.radio.energyConsumer switchingPowerConsumption 0.001W
attr unit W
par SmartGridNetwork.house3.LoRaNic.radio.energyConsumer receiverIdlePowerConsumption 0.002W
attr unit W
par SmartGridNetwork.house3.LoRaNic.radio.energyConsumer receiverBusyPowerConsumption 0.005W
attr unit W
par SmartGridNetwork.house3.LoRaNic.radio.energyConsumer receiverReceivingPowerConsumption 0.01W
attr unit W
par SmartGridNetwork.house3.LoRaNic.radio.energyConsumer receiverReceivingPreamblePowerConsumption 0.01W
attr unit W
par SmartGridNetwork.house3.LoRaNic.radio.energyConsumer receiverReceivingHeaderPowerConsumption 0.01W
attr unit W
par SmartGridNetwork.house3.LoRaNic.radio.energyConsumer receiverReceivingDataPowerConsumption 0.01W
attr unit W
par SmartGridNetwork.house3.LoRaNic.radio.energyConsumer transmitterIdlePowerConsumption 0.002W
attr unit W
par SmartGridNetwork.house3.LoRaNic.radio.energyConsumer transmitterTransmittingPowerConsumption 0.1W
attr unit W
par SmartGridNetwork.house3.LoRaNic.radio.energyConsumer transmitterTransmittingPreamblePowerConsumption 0.1W
attr unit W
par SmartGridNetwork.house3.LoRaNic.radio.energyConsumer transmitterTransmittingHeaderPowerConsumption 0.1W
attr unit W
par SmartGridNetwork.house3.LoRaNic.radio.energyConsumer transmitterTransmittingDataPowerConsumption 0.1W
attr unit W
par SmartGridNetwork.house3.LoRaNic.radio.energyConsumer configFile "<root>...</root> at /home/duru/omnetpp-6.0/samples/flora/simulations/energyConsumptionParameters.xml:2"
scalar SmartGridNetwork.house3.LoRaNic.radio.energyConsumer totalEnergyConsumed 1.9729248
par SmartGridNetwork.house3.LoRaNic.radio.IdealEpEnergyStorage typename "\"inet.power.storage.IdealEpEnergyStorage\""
scalar SmartGridNetwork.house3.LoRaNic.radio.IdealEpEnergyStorage residualEnergyCapacity:last -1.9729248
attr interpolationmode linear
attr recordingmode last
attr source residualEnergyCapacityChanged
attr title "Residual energy capacity, last"
par SmartGridNetwork.house3.LoRaNic.radio typename "\"flora.LoRa.LoRaRadio\""
par SmartGridNetwork.house3.LoRaNic.radio radioMediumModule "\"LoRaMedium\""
par SmartGridNetwork.house3.LoRaNic.radio energySourceModule "\"^.IdealEpEnergyStorage\""
par SmartGridNetwork.house3.LoRaNic.radio initialRadioMode "\"off\""
attr enum off,sleep,receiver,transmitter,transceiver
par SmartGridNetwork.house3.LoRaNic.radio switchingTimes "\"ms 0 0 0 0 0 0 0 0 0 0 0 0 0 0 0 0 0 0 0 0 0 0 0 0 0\""
par SmartGridNetwork.house3.LoRaNic.radio sendRawBytes false
par SmartGridNetwork.house3.LoRaNic.radio separateTransmissionParts false
par SmartGridNetwork.house3.LoRaNic.radio separateReceptionParts false
par SmartGridNetwork.house3.LoRaNic.radio displayCommunicationRange false
par SmartGridNetwork.house3.LoRaNic.radio displayInterferenceRange false
par SmartGridNetwork.house3.LoRaNic.radio centerFrequency 8.68e+08Hz
attr unit Hz
par SmartGridNetwork.house3.LoRaNic.radio bandwidth 250000Hz
attr unit Hz
par SmartGridNetwork.house3.LoRaNic.radio iAmGateway false
scalar SmartGridNetwork.house3.LoRaNic.radio radioMode:count 171
attr interpolationmode sample-hold
attr recordingmode count
attr source radioModeChanged
attr title "Radio mode, count"
scalar SmartGridNetwork.house3.LoRaNic.radio receptionState:count 112
attr interpolationmode sample-hold
attr recordingmode count
attr source receptionStateChanged
attr title "Radio reception state, count"
scalar SmartGridNetwork.house3.LoRaNic.radio transmissionState:count 112
attr interpolationmode sample-hold
attr recordingmode count
attr source transmissionStateChanged
attr title "Radio transmission state, count"
statistic SmartGridNetwork.house3.LoRaNic.radio minSnir:histogram
field count 0
field mean -nan
field stddev nan
field min nan
field max nan
field sum 0
field sqrsum 0
attr recordingmode histogram
attr source minimumSnir(packetSentToUpper)
attr title "Min SNIR"
bin	-inf	0
bin	0	0
bin	1	0
statistic SmartGridNetwork.house3.LoRaNic.radio packetErrorRate:histogram
field count 0
field mean -nan
field stddev nan
field min nan
field max nan
field sum 0
field sqrsum 0
attr recordingmode histogram
attr source packetErrorRate(packetSentToUpper)
attr title "Packet error rate"
bin	-inf	0
bin	0	0
bin	1	0
statistic SmartGridNetwork.house3.LoRaNic.radio bitErrorRate:histogram
field count 0
field mean -nan
field stddev nan
field min nan
field max nan
field sum 0
field sqrsum 0
attr recordingmode histogram
attr source bitErrorRate(packetSentToUpper)
attr title "Bit error rate"
bin	-inf	0
bin	0	0
bin	1	0
statistic SmartGridNetwork.house3.LoRaNic.radio symbolErrorRate:histogram
field count 0
field mean -nan
field stddev nan
field min nan
field max nan
field sum 0
field sqrsum 0
attr recordingmode histogram
attr source symbolErrorRate(packetSentToUpper)
attr title "Symbol error rate"
bin	-inf	0
bin	0	0
bin	1	0
par SmartGridNetwork.house3.LoRaNic typename "\"flora.LoRa.LoRaNic\""
par SmartGridNetwork.house3.LoRaNic displayStringTextFormat "\"%a (%i)\\n%m\""
par SmartGridNetwork.house3.LoRaNic recordPcap false
par SmartGridNetwork.house3.LoRaNic numPcapRecorders 0
par SmartGridNetwork.house3.LoRaNic interfaceTableModule "\"SmartGridNetwork.house3.interfaceTable\""
par SmartGridNetwork.house3.LoRaNic energySourceModule "\"^.IdealEpEnergyStorage\""
par SmartGridNetwork.house3.LoRaNic protocol "\"\""
scalar SmartGridNetwork.house3.LoRaNic packetDropInterfaceDown:count 0
attr interpolationmode none
attr recordingmode count
attr source packetDropReasonIsInterfaceDown(packetDropped)
attr title "packet drops: interface down, count"
scalar SmartGridNetwork.house3.LoRaNic packetDropInterfaceDown:sum(packetBytes) 0
attr interpolationmode none
attr recordingmode sum(packetBytes)
attr source packetDropReasonIsInterfaceDown(packetDropped)
attr title "packet drops: interface down, sum(packetBytes)"
scalar SmartGridNetwork.house3.LoRaNic packetDropNoCarrier:count 0
attr interpolationmode none
attr recordingmode count
attr source packetDropReasonIsNoCarrier(packetDropped)
attr title "packet drops: no carrier, count"
scalar SmartGridNetwork.house3.LoRaNic packetDropNoCarrier:sum(packetBytes) 0
attr interpolationmode none
attr recordingmode sum(packetBytes)
attr source packetDropReasonIsNoCarrier(packetDropped)
attr title "packet drops: no carrier, sum(packetBytes)"
par SmartGridNetwork.house3.app[0] typename "\"flora.LoRaApp.SimpleLoRaApp\""
par SmartGridNetwork.house3.app[0] numberOfPacketsToSend 0
par SmartGridNetwork.house3.app[0] timeToFirstPacket exponential(1000s)
attr unit s
par SmartGridNetwork.house3.app[0] timeToNextPacket exponential(1000s)
attr unit s
par SmartGridNetwork.house3.app[0] initialLoRaTP 8dBm
attr unit dBm
par SmartGridNetwork.house3.app[0] initialLoRaCF 8.68e+08Hz
attr unit Hz
par SmartGridNetwork.house3.app[0] initialLoRaSF 7
par SmartGridNetwork.house3.app[0] initialLoRaBW 125000Hz
attr unit Hz
par SmartGridNetwork.house3.app[0] initialLoRaCR 4
par SmartGridNetwork.house3.app[0] initialUseHeader true
par SmartGridNetwork.house3.app[0] evaluateADRinNode true
par SmartGridNetwork.house3.app[0] dataSize 10B
attr unit B
par SmartGridNetwork.house3.app[0] maxQueueSize 10
par SmartGridNetwork.house3.app[0] outageInterval 1000s
attr unit s
scalar SmartGridNetwork.house3.app[0] positionX 600
scalar SmartGridNetwork.house3.app[0] positionY 450
scalar SmartGridNetwork.house3.app[0] finalTP 8
scalar SmartGridNetwork.house3.app[0] finalSF 7
scalar SmartGridNetwork.house3.app[0] sentPackets 28
scalar SmartGridNetwork.house3.app[0] receivedADRCommands 0
scalar SmartGridNetwork.house3.app[0] maxQueueSizeUsed 9
scalar SmartGridNetwork.house3.app[0] LoRa_AppPacketSent:count 28
attr recordingmode count
attr source LoRa_AppPacketSent
par SmartGridNetwork.house3 typename "\"flora.LoraNode.LoRaNode\""
par SmartGridNetwork.house3 numApps 1
par SmartGridNetwork.house3 deploymentType "\"\""
par SmartGridNetwork.house3 maxGatewayDistance 320
par SmartGridNetwork.house3 gatewayX 320
par SmartGridNetwork.house3 gatewayY 320
par SmartGridNetwork.monitoring_system.ethg$i[0].channel typename "\"ned.IdealChannel\""
par SmartGridNetwork.monitoring_system.eth[0].phys$o.channel typename "\"ned.IdealChannel\""
par SmartGridNetwork.monitoring_system.at typename "\"inet.common.MessageDispatcher\""
par SmartGridNetwork.monitoring_system.at displayStringTextFormat "\"processed %p pk (%l)\""
par SmartGridNetwork.monitoring_system.at forwardServiceRegistration true
par SmartGridNetwork.monitoring_system.at forwardProtocolRegistration true
par SmartGridNetwork.monitoring_system.tn typename "\"inet.common.MessageDispatcher\""
par SmartGridNetwork.monitoring_system.tn displayStringTextFormat "\"processed %p pk (%l)\""
par SmartGridNetwork.monitoring_system.tn forwardServiceRegistration true
par SmartGridNetwork.monitoring_system.tn forwardProtocolRegistration true
par SmartGridNetwork.monitoring_system.nl typename "\"inet.common.MessageDispatcher\""
par SmartGridNetwork.monitoring_system.nl displayStringTextFormat "\"processed %p pk (%l)\""
par SmartGridNetwork.monitoring_system.nl forwardServiceRegistration true
par SmartGridNetwork.monitoring_system.nl forwardProtocolRegistration true
par SmartGridNetwork.monitoring_system.cb typename "\"inet.common.MessageDispatcher\""
par SmartGridNetwork.monitoring_system.cb displayStringTextFormat "\"processed %p pk (%l)\""
par SmartGridNetwork.monitoring_system.cb forwardServiceRegistration true
par SmartGridNetwork.monitoring_system.cb forwardProtocolRegistration true
par SmartGridNetwork.monitoring_system.bl typename "\"inet.common.MessageDispatcher\""
par SmartGridNetwork.monitoring_system.bl displayStringTextFormat "\"processed %p pk (%l)\""
par SmartGridNetwork.monitoring_system.bl forwardServiceRegistration true
par SmartGridNetwork.monitoring_system.bl forwardProtocolRegistration true
par SmartGridNetwork.monitoring_system.li typename "\"inet.common.MessageDispatcher\""
par SmartGridNetwork.monitoring_system.li displayStringTextFormat "\"processed %p pk (%l)\""
par SmartGridNetwork.monitoring_system.li forwardServiceRegistration true
par SmartGridNetwork.monitoring_system.li forwardProtocolRegistration true
par SmartGridNetwork.monitoring_system.interfaceTable typename "\"inet.networklayer.common.InterfaceTable\""
par SmartGridNetwork.monitoring_system.interfaceTable displayAddresses false
par SmartGridNetwork.monitoring_system.mobility typename "\"inet.mobility.static.StationaryMobility\""
par SmartGridNetwork.monitoring_system.mobility subjectModule "\"^\""
par SmartGridNetwork.monitoring_system.mobility coordinateSystemModule "\"\""
[...]
par SmartGridNetwork.networkServer.eth[0] protocol "\"ethernetmac\""
par SmartGridNetwork.networkServer.eth[0] address "\"0A-AA-00-00-00-08\""
attr mutable ""
par SmartGridNetwork.networkServer.eth[0] duplexMode true
par SmartGridNetwork.networkServer.eth[0] csmacdSupport false
par SmartGridNetwork.networkServer.eth[0] bitrate 0bps
attr unit bps
par SmartGridNetwork.networkServer.eth[0] fcsMode "\"declared\""
attr enum declared,computed
scalar SmartGridNetwork.networkServer.eth[0] packetDropInterfaceDown:count 0
attr interpolationmode none
attr recordingmode count
attr source packetDropReasonIsInterfaceDown(packetDropped)
attr title "packet drops: interface down, count"
scalar SmartGridNetwork.networkServer.eth[0] packetDropInterfaceDown:sum(packetBytes) 0
attr interpolationmode none
attr recordingmode sum(packetBytes)
attr source packetDropReasonIsInterfaceDown(packetDropped)
attr title "packet drops: interface down, sum(packetBytes)"
scalar SmartGridNetwork.networkServer.eth[0] packetDropNoCarrier:count 0
attr interpolationmode none
attr recordingmode count
attr source packetDropReasonIsNoCarrier(packetDropped)
attr title "packet drops: no carrier, count"
scalar SmartGridNetwork.networkServer.eth[0] packetDropNoCarrier:sum(packetBytes) 0
attr interpolationmode none
attr recordingmode sum(packetBytes)
attr source packetDropReasonIsNoCarrier(packetDropped)
attr title "packet drops: no carrier, sum(packetBytes)"
par SmartGridNetwork.networkServer.ipv4.transportIn.channel typename "\"ned.IdealChannel\""
par SmartGridNetwork.networkServer.ipv4.up.out[0].channel typename "\"ned.IdealChannel\""
par SmartGridNetwork.networkServer.ipv4.lp.out[2].channel typename "\"ned.IdealChannel\""
par SmartGridNetwork.networkServer.ipv4.ifIn.channel typename "\"ned.IdealChannel\""
par SmartGridNetwork.networkServer.ipv4.configurator typename "\"inet.networklayer.configurator.ipv4.Ipv4NodeConfigurator\""
par SmartGridNetwork.networkServer.ipv4.configurator interfaceTableModule "\"SmartGridNetwork.networkServer.interfaceTable\""
par SmartGridNetwork.networkServer.ipv4.configurator routingTableModule "\"SmartGridNetwork.networkServer.ipv4.routingTable\""
par SmartGridNetwork.networkServer.ipv4.configurator networkConfiguratorModule "\"configurator\""
par SmartGridNetwork.networkServer.ipv4.configurator configureRoutingTable true
par SmartGridNetwork.networkServer.ipv4.routingTable typename "\"inet.networklayer.ipv4.Ipv4RoutingTable\""
par SmartGridNetwork.networkServer.ipv4.routingTable interfaceTableModule "\"SmartGridNetwork.networkServer.interfaceTable\""
par SmartGridNetwork.networkServer.ipv4.routingTable routerId "\"auto\""
par SmartGridNetwork.networkServer.ipv4.routingTable netmaskRoutes "\"*\""
par SmartGridNetwork.networkServer.ipv4.routingTable forwarding false
par SmartGridNetwork.networkServer.ipv4.routingTable multicastForwarding false
par SmartGridNetwork.networkServer.ipv4.routingTable useAdminDist false
par SmartGridNetwork.networkServer.ipv4.routingTable routingFile "\"\""
par SmartGridNetwork.networkServer.ipv4.natTable typename "\"inet.networklayer.ipv4.Ipv4NatTable\""
par SmartGridNetwork.networkServer.ipv4.natTable networkProtocolModule "\"^.ip\""
par SmartGridNetwork.networkServer.ipv4.natTable config "<config/> at content:1"
par SmartGridNetwork.networkServer.ipv4.up typename "\"inet.common.MessageDispatcher\""
par SmartGridNetwork.networkServer.ipv4.up displayStringTextFormat "\"processed %p pk (%l)\""
par SmartGridNetwork.networkServer.ipv4.up forwardServiceRegistration true
par SmartGridNetwork.networkServer.ipv4.up forwardProtocolRegistration true
par SmartGridNetwork.networkServer.ipv4.igmp typename "\"inet.networklayer.ipv4.Igmpv2\""
par SmartGridNetwork.networkServer.ipv4.igmp interfaceTableModule "\"SmartGridNetwork.networkServer.interfaceTable\""
par SmartGridNetwork.networkServer.ipv4.igmp routingTableModule "\"SmartGridNetwork.networkServer.ipv4.routingTable\""
par SmartGridNetwork.networkServer.ipv4.igmp crcMode "\"declared\""
attr enum declared,computed
par SmartGridNetwork.networkServer.ipv4.igmp enabled true
par SmartGridNetwork.networkServer.ipv4.igmp robustnessVariable 2
par SmartGridNetwork.networkServer.ipv4.igmp queryInterval 125s
attr unit s
par SmartGridNetwork.networkServer.ipv4.igmp queryResponseInterval 10s
attr unit s
par SmartGridNetwork.networkServer.ipv4.igmp groupMembershipInterval 260s
attr unit s
par SmartGridNetwork.networkServer.ipv4.igmp otherQuerierPresentInterval 255s
attr unit s
par SmartGridNetwork.networkServer.ipv4.igmp startupQueryInterval 31.25s
attr unit s
par SmartGridNetwork.networkServer.ipv4.igmp startupQueryCount 2
par SmartGridNetwork.networkServer.ipv4.igmp lastMemberQueryInterval 1s
attr unit s
par SmartGridNetwork.networkServer.ipv4.igmp lastMemberQueryCount 2
par SmartGridNetwork.networkServer.ipv4.igmp unsolicitedReportInterval 10s
attr unit s
par SmartGridNetwork.networkServer.ipv4.icmp typename "\"inet.networklayer.ipv4.Icmp\""
par SmartGridNetwork.networkServer.ipv4.icmp interfaceTableModule "\"SmartGridNetwork.networkServer.interfaceTable\""
par SmartGridNetwork.networkServer.ipv4.icmp routingTableModule "\"SmartGridNetwork.networkServer.ipv4.routingTable\""
par SmartGridNetwork.networkServer.ipv4.icmp crcMode "\"declared\""
attr enum declared,computed
attr mutable ""
par SmartGridNetwork.networkServer.ipv4.icmp quoteLength 8B
attr mutable ""
attr unit B
par SmartGridNetwork.networkServer.ipv4.mp typename "\"inet.common.MessageDispatcher\""
par SmartGridNetwork.networkServer.ipv4.mp displayStringTextFormat "\"processed %p pk (%l)\""
par SmartGridNetwork.networkServer.ipv4.mp forwardServiceRegistration true
par SmartGridNetwork.networkServer.ipv4.mp forwardProtocolRegistration true
par SmartGridNetwork.networkServer.ipv4.ip typename "\"inet.networklayer.ipv4.Ipv4\""
par SmartGridNetwork.networkServer.ipv4.ip interfaceTableModule "\"SmartGridNetwork.networkServer.interfaceTable\""
par SmartGridNetwork.networkServer.ipv4.ip routingTableModule "\"SmartGridNetwork.networkServer.ipv4.routingTable\""
par SmartGridNetwork.networkServer.ipv4.ip arpModule "\"SmartGridNetwork.networkServer.ipv4.arp\""
par SmartGridNetwork.networkServer.ipv4.ip icmpModule "\"SmartGridNetwork.networkServer.ipv4.icmp\""
par SmartGridNetwork.networkServer.ipv4.ip crcMode "\"declared\""
attr enum declared,computed
par SmartGridNetwork.networkServer.ipv4.ip timeToLive 32
par SmartGridNetwork.networkServer.ipv4.ip multicastTimeToLive 32
par SmartGridNetwork.networkServer.ipv4.ip fragmentTimeout 60s
attr unit s
par SmartGridNetwork.networkServer.ipv4.ip limitedBroadcast false
par SmartGridNetwork.networkServer.ipv4.ip directBroadcastInterfaces "\"\""
scalar SmartGridNetwork.networkServer.ipv4.ip packetDropAddressResolutionFailed:count 0
attr interpolationmode none
attr recordingmode count
attr source packetDropReasonIsAddressResolutionFailed(packetDropped)
attr title "packet drop: address resolution failed, count"
scalar SmartGridNetwork.networkServer.ipv4.ip packetDropAddressResolutionFailed:sum(packetBytes) 0
attr interpolationmode none
attr recordingmode sum(packetBytes)
attr source packetDropReasonIsAddressResolutionFailed(packetDropped)
attr title "packet drop: address resolution failed, sum(packetBytes)"
scalar SmartGridNetwork.networkServer.ipv4.ip packetDropHopLimitReached:count 0
attr interpolationmode none
attr recordingmode count
attr source packetDropReasonIsHopLimitReached(packetDropped)
attr title "packet drop: hop limit reached, count"
scalar SmartGridNetwork.networkServer.ipv4.ip packetDropHopLimitReached:sum(packetBytes) 0
attr interpolationmode none
attr recordingmode sum(packetBytes)
attr source packetDropReasonIsHopLimitReached(packetDropped)
attr title "packet drop: hop limit reached, sum(packetBytes)"
scalar SmartGridNetwork.networkServer.ipv4.ip packetDropForwardingDisabled:count 0
attr interpolationmode none
attr recordingmode count
attr source packetDropReasonIsForwardingDisabled(packetDropped)
attr title "packet drop: forwarding disabled, count"
scalar SmartGridNetwork.networkServer.ipv4.ip packetDropForwardingDisabled:sum(packetBytes) 0
attr interpolationmode none
attr recordingmode sum(packetBytes)
attr source packetDropReasonIsForwardingDisabled(packetDropped)
attr title "packet drop: forwarding disabled, sum(packetBytes)"
scalar SmartGridNetwork.networkServer.ipv4.ip packetDropNoInterfaceFound:count 0
attr interpolationmode none
attr recordingmode count
attr source packetDropReasonIsNoInterfaceFound(packetDropped)
attr title "packet drop: no interface found, count"
scalar SmartGridNetwork.networkServer.ipv4.ip packetDropNoInterfaceFound:sum(packetBytes) 0
attr interpolationmode none
attr recordingmode sum(packetBytes)
attr source packetDropReasonIsNoInterfaceFound(packetDropped)
attr title "packet drop: no interface found, sum(packetBytes)"
scalar SmartGridNetwork.networkServer.ipv4.ip packetDropNoRouteFound:count 0
attr interpolationmode none
attr recordingmode count
attr source packetDropReasonIsNoRouteFound(packetDropped)
attr title "packet drop: no route found, count"
scalar SmartGridNetwork.networkServer.ipv4.ip packetDropNoRouteFound:sum(packetBytes) 0
attr interpolationmode none
attr recordingmode sum(packetBytes)
attr source packetDropReasonIsNoRouteFound(packetDropped)
attr title "packet drop: no route found, sum(packetBytes)"
scalar SmartGridNetwork.networkServer.ipv4.ip packetDropUndefined:count 0
attr interpolationmode none
attr recordingmode count
attr source packetDropReasonIsUndefined(packetDropped)
attr title "packet drop: undefined, count"
scalar SmartGridNetwork.networkServer.ipv4.ip packetDropUndefined:sum(packetBytes) 0
attr interpolationmode none
attr recordingmode sum(packetBytes)
attr source packetDropReasonIsUndefined(packetDropped)
attr title "packet drop: undefined, sum(packetBytes)"
par SmartGridNetwork.networkServer.ipv4.arp typename "\"inet.networklayer.arp.ipv4.Arp\""
par SmartGridNetwork.networkServer.ipv4.arp interfaceTableModule "\"SmartGridNetwork.networkServer.interfaceTable\""
par SmartGridNetwork.networkServer.ipv4.arp routingTableModule "\"SmartGridNetwork.networkServer.ipv4.routingTable\""
par SmartGridNetwork.networkServer.ipv4.arp retryTimeout 1s
attr unit s
par SmartGridNetwork.networkServer.ipv4.arp retryCount 3
par SmartGridNetwork.networkServer.ipv4.arp cacheTimeout 120s
attr unit s
par SmartGridNetwork.networkServer.ipv4.arp proxyArpInterfaces "\"\""
scalar SmartGridNetwork.networkServer.ipv4.arp arpResolutionFailed:count 0
attr recordingmode count
attr title "ARP failed resolutions, count"
scalar SmartGridNetwork.networkServer.ipv4.arp arpResolutionCompleted:count 56
attr recordingmode count
attr title "ARP completed resolutions, count"
scalar SmartGridNetwork.networkServer.ipv4.arp arpResolutionInitiated:count 0
attr recordingmode count
attr title "ARP initiated resolutions, count"
scalar SmartGridNetwork.networkServer.ipv4.arp arpReplySent:count 56
attr recordingmode count
attr source arpReplySent
attr title "ARP replies sent, count"
scalar SmartGridNetwork.networkServer.ipv4.arp arpReplySent:sum(packetBytes) 1568
attr recordingmode sum(packetBytes)
attr source arpReplySent
attr title "ARP replies sent, sum(packetBytes)"
scalar SmartGridNetwork.networkServer.ipv4.arp arpRequestSent:count 0
attr recordingmode count
attr source arpRequestSent
attr title "ARP request sent, count"
scalar SmartGridNetwork.networkServer.ipv4.arp arpRequestSent:sum(packetBytes) 0
attr recordingmode sum(packetBytes)
attr source arpRequestSent
attr title "ARP request sent, sum(packetBytes)"
par SmartGridNetwork.networkServer.ipv4.lp typename "\"inet.common.MessageDispatcher\""
par SmartGridNetwork.networkServer.ipv4.lp displayStringTextFormat "\"processed %p pk (%l)\""
par SmartGridNetwork.networkServer.ipv4.lp forwardServiceRegistration true
par SmartGridNetwork.networkServer.ipv4.lp forwardProtocolRegistration true
par SmartGridNetwork.networkServer.ipv4 typename "\"inet.networklayer.ipv4.Ipv4NetworkLayer\""
par SmartGridNetwork.networkServer.ipv4 forwarding false
par SmartGridNetwork.networkServer.ipv4 multicastForwarding false
par SmartGridNetwork.networkServer.ipv4 interfaceTableModule "\"SmartGridNetwork.networkServer.interfaceTable\""
par SmartGridNetwork.networkServer.ipv4 displayStringTextFormat "\"%i\""
par SmartGridNetwork.networkServer.nl typename "\"inet.common.MessageDispatcher\""
par SmartGridNetwork.networkServer.nl displayStringTextFormat "\"processed %p pk (%l)\""
par SmartGridNetwork.networkServer.nl forwardServiceRegistration true
par SmartGridNetwork.networkServer.nl forwardProtocolRegistration true
par SmartGridNetwork.networkServer.udp typename "\"inet.transportlayer.udp.Udp\""
par SmartGridNetwork.networkServer.udp interfaceTableModule "\"SmartGridNetwork.networkServer.interfaceTable\""
par SmartGridNetwork.networkServer.udp icmpModule "\"^.ipv4.icmp\""
par SmartGridNetwork.networkServer.udp icmpv6Module "\"^.ipv6.icmpv6\""
par SmartGridNetwork.networkServer.udp crcMode "\"declared\""
attr enum disabled,declared,computed
par SmartGridNetwork.networkServer.udp defaultMulticastLoop true
scalar SmartGridNetwork.networkServer.udp packetReceived:count 58
attr interpolationmode none
attr recordingmode count
attr source packetReceived
attr title "packets received, count"
scalar SmartGridNetwork.networkServer.udp packetReceived:sum(packetBytes) 2030
attr interpolationmode none
attr recordingmode sum(packetBytes)
attr source packetReceived
attr title "packets received, sum(packetBytes)"
scalar SmartGridNetwork.networkServer.udp packetSent:count 58
attr interpolationmode none
attr recordingmode count
attr source packetSent
attr title "packets sent, count"
scalar SmartGridNetwork.networkServer.udp packetSent:sum(packetBytes) 1392
attr interpolationmode none
attr recordingmode sum(packetBytes)
attr source packetSent
attr title "packets sent, sum(packetBytes)"
scalar SmartGridNetwork.networkServer.udp passedUpPk:count 58
attr interpolationmode none
attr recordingmode count
attr source packetSentToUpper
attr title "packets passed up, count"
scalar SmartGridNetwork.networkServer.udp droppedPkWrongPort:count 0
attr interpolationmode none
attr recordingmode count
attr source packetDropReasonIsNoPortFound(packetDropped)
attr title "packets dropped (wrong port), count"
scalar SmartGridNetwork.networkServer.udp droppedPkBadChecksum:count 0
attr interpolationmode none
attr recordingmode count
attr source packetDropReasonIsIncorrectlyReceived(packetDropped)
attr title "packets dropped (checksum error), count"
par SmartGridNetwork.networkServer.tcp typename "\"inet.transportlayer.tcp.Tcp\""
par SmartGridNetwork.networkServer.tcp crcMode "\"declared\""
attr enum declared,computed
par SmartGridNetwork.networkServer.tcp advertisedWindow 7504
par SmartGridNetwork.networkServer.tcp delayedAcksEnabled false
par SmartGridNetwork.networkServer.tcp nagleEnabled true
par SmartGridNetwork.networkServer.tcp limitedTransmitEnabled false
par SmartGridNetwork.networkServer.tcp increasedIWEnabled false
par SmartGridNetwork.networkServer.tcp sackSupport false
par SmartGridNetwork.networkServer.tcp windowScalingSupport false
par SmartGridNetwork.networkServer.tcp windowScalingFactor -1
par SmartGridNetwork.networkServer.tcp timestampSupport false
par SmartGridNetwork.networkServer.tcp mss 536
par SmartGridNetwork.networkServer.tcp msl 120s
attr unit s
par SmartGridNetwork.networkServer.tcp tcpAlgorithmClass "\"TcpReno\""
attr enum TcpVegas,TcpWestwood,TcpNewReno,TcpReno,TcpTahoe,TcpNoCongestionControl
par SmartGridNetwork.networkServer.tcp useDataNotification false
par SmartGridNetwork.networkServer.tcp dupthresh 3
par SmartGridNetwork.networkServer.tcp initialSsthresh 4294967295
par SmartGridNetwork.networkServer.tcp stopOperationExtraTime 0s
attr unit s
par SmartGridNetwork.networkServer.tcp stopOperationTimeout 2s
attr unit s
par SmartGridNetwork.networkServer.tcp ecnWillingness false
par SmartGridNetwork.networkServer.tcp dctcpGamma 0.0625
par SmartGridNetwork.networkServer.tn typename "\"inet.common.MessageDispatcher\""
par SmartGridNetwork.networkServer.tn displayStringTextFormat "\"processed %p pk (%l)\""
par SmartGridNetwork.networkServer.tn forwardServiceRegistration true
par SmartGridNetwork.networkServer.tn forwardProtocolRegistration true
par SmartGridNetwork.networkServer.app[0] typename "\"flora.LoRa.NetworkServerApp\""
par SmartGridNetwork.networkServer.app[0] localPort 1000
par SmartGridNetwork.networkServer.app[0] localAddress "\"\""
par SmartGridNetwork.networkServer.app[0] destPort 2000
par SmartGridNetwork.networkServer.app[0] evaluateADRinServer true
par SmartGridNetwork.networkServer.app[0] headerLength 8B
attr unit B
par SmartGridNetwork.networkServer.app[0] adrMethod "\"avg\""
par SmartGridNetwork.networkServer.app[0] adrDeviceMargin 15
par SmartGridNetwork.networkServer.app[0] maxQueueSize 20
scalar SmartGridNetwork.networkServer.app[0] LoRa_NS_DER 0
statistic SmartGridNetwork.networkServer.app[0] receivedRSSI
field count 0
field mean -nan
field stddev nan
field min nan
field max nan
field sum 0
field sqrsum 0
bin	-inf	0
bin	0	0
bin	1	0
scalar SmartGridNetwork.networkServer.app[0] totalReceivedPackets 58
scalar SmartGridNetwork.networkServer.app[0] "counterUniqueReceivedPacketsPerSF SF7" 0
scalar SmartGridNetwork.networkServer.app[0] "counterUniqueReceivedPacketsPerSF SF8" 0
scalar SmartGridNetwork.networkServer.app[0] "counterUniqueReceivedPacketsPerSF SF9" 0
scalar SmartGridNetwork.networkServer.app[0] "counterUniqueReceivedPacketsPerSF SF10" 0
scalar SmartGridNetwork.networkServer.app[0] "counterUniqueReceivedPacketsPerSF SF11" 0
scalar SmartGridNetwork.networkServer.app[0] "counterUniqueReceivedPacketsPerSF SF12" 0
scalar SmartGridNetwork.networkServer.app[0] "DER SF7" 0
scalar SmartGridNetwork.networkServer.app[0] "DER SF8" 0
scalar SmartGridNetwork.networkServer.app[0] "DER SF9" 0
scalar SmartGridNetwork.networkServer.app[0] "DER SF10" 0
scalar SmartGridNetwork.networkServer.app[0] "DER SF11" 0
scalar SmartGridNetwork.networkServer.app[0] "DER SF12" 0
scalar SmartGridNetwork.networkServer.app[0] LoRa_ServerPacketReceived:count 0
attr recordingmode count
attr source LoRa_ServerPacketReceived
par SmartGridNetwork.networkServer.at typename "\"inet.common.MessageDispatcher\""
par SmartGridNetwork.networkServer.at displayStringTextFormat "\"processed %p pk (%l)\""
par SmartGridNetwork.networkServer.at forwardServiceRegistration true
par SmartGridNetwork.networkServer.at forwardProtocolRegistration true
par SmartGridNetwork.networkServer typename "\"inet.node.inet.StandardHost\""
par SmartGridNetwork.networkServer hasStatus false
par SmartGridNetwork.networkServer osgModel "\"\""
par SmartGridNetwork.networkServer osgModelColor "\"\""
par SmartGridNetwork.networkServer canvasImage "\"\""
par SmartGridNetwork.networkServer canvasImageColor "\"\""
par SmartGridNetwork.networkServer recordPcap false
par SmartGridNetwork.networkServer numPcapRecorders 0
par SmartGridNetwork.networkServer numLoInterfaces 1
par SmartGridNetwork.networkServer numWlanInterfaces 0
par SmartGridNetwork.networkServer numEthInterfaces 0
par SmartGridNetwork.networkServer numPppInterfaces 0
par SmartGridNetwork.networkServer numTunInterfaces 0
par SmartGridNetwork.networkServer numVirtInterfaces 0
par SmartGridNetwork.networkServer fcsMode "\"declared\""
attr enum declared,computed
par SmartGridNetwork.networkServer hasIpv4 true
par SmartGridNetwork.networkServer hasIpv6 false
par SmartGridNetwork.networkServer hasGn false
par SmartGridNetwork.networkServer forwarding false
par SmartGridNetwork.networkServer multicastForwarding false
par SmartGridNetwork.networkServer hasUdp true
par SmartGridNetwork.networkServer hasTcp true
par SmartGridNetwork.networkServer hasSctp false
par SmartGridNetwork.networkServer numApps 1
par SmartGridNetwork typename "\"smartgrid.SmartGridNetwork\""

